

        *** GPGPU-Sim Simulator Version 4.0.0  [build gpgpu-sim_git-commit-90ec3399763d7c8512cfe7dc193473086c38ca38_modified_9.0] ***


GPGPU-Sim PTX: simulation mode 0 (can change with PTX_SIM_MODE_FUNC environment variable:
               1=functional simulation only, 0=detailed performance simulator)
GPGPU-Sim PTX: overriding embedded ptx with ptx file (PTX_SIM_USE_PTX_FILE is set)
GPGPU-Sim: Configuration options:

-save_embedded_ptx                      0 # saves ptx files embedded in binary as <n>.ptx
-keep                                   0 # keep intermediate files created by GPGPU-Sim when interfacing with external programs
-gpgpu_ptx_save_converted_ptxplus                    0 # Saved converted ptxplus to a file
-gpgpu_occupancy_sm_number                   70 # The SM number to pass to ptxas when getting register usage for computing GPU occupancy. This parameter is required in the config.
-ptx_opcode_latency_int      4,13,4,5,145,21 # Opcode latencies for integers <ADD,MAX,MUL,MAD,DIV,SHFL>Default 1,1,19,25,145,32
-ptx_opcode_latency_fp          4,13,4,5,39 # Opcode latencies for single precision floating points <ADD,MAX,MUL,MAD,DIV>Default 1,1,1,1,30
-ptx_opcode_latency_dp         8,19,8,8,330 # Opcode latencies for double precision floating points <ADD,MAX,MUL,MAD,DIV>Default 8,8,8,8,335
-ptx_opcode_latency_sfu                  100 # Opcode latencies for SFU instructionsDefault 8
-ptx_opcode_latency_tesnor                   64 # Opcode latencies for Tensor instructionsDefault 64
-ptx_opcode_initiation_int          2,2,2,2,8,4 # Opcode initiation intervals for integers <ADD,MAX,MUL,MAD,DIV,SHFL>Default 1,1,4,4,32,4
-ptx_opcode_initiation_fp            2,2,2,2,4 # Opcode initiation intervals for single precision floating points <ADD,MAX,MUL,MAD,DIV>Default 1,1,1,1,5
-ptx_opcode_initiation_dp          4,4,4,4,130 # Opcode initiation intervals for double precision floating points <ADD,MAX,MUL,MAD,DIV>Default 8,8,8,8,130
-ptx_opcode_initiation_sfu                    8 # Opcode initiation intervals for sfu instructionsDefault 8
-ptx_opcode_initiation_tensor                   64 # Opcode initiation intervals for tensor instructionsDefault 64
-cdp_latency         7200,8000,100,12000,1600 # CDP API latency <cudaStreamCreateWithFlags, cudaGetParameterBufferV2_init_perWarp, cudaGetParameterBufferV2_perKernel, cudaLaunchDeviceV2_init_perWarp, cudaLaunchDevicV2_perKernel>Default 7200,8000,100,12000,1600
-network_mode                           2 # Interconnection network mode
-inter_config_file                   mesh # Interconnection network config file
-icnt_in_buffer_limit                  512 # in_buffer_limit
-icnt_out_buffer_limit                  512 # out_buffer_limit
-icnt_subnets                           2 # subnets
-icnt_arbiter_algo                      1 # arbiter_algo
-icnt_verbose                           0 # inct_verbose
-icnt_grant_cycles                      1 # grant_cycles
-gpgpu_ptx_use_cuobjdump                    1 # Use cuobjdump to extract ptx and sass from binaries
-gpgpu_experimental_lib_support                    0 # Try to extract code from cuda libraries [Broken because of unknown cudaGetExportTable]
-checkpoint_option                      0 #  checkpointing flag (0 = no checkpoint)
-checkpoint_kernel                      1 #  checkpointing during execution of which kernel (1- 1st kernel)
-checkpoint_CTA                         0 #  checkpointing after # of CTA (< less than total CTA)
-resume_option                          0 #  resume flag (0 = no resume)
-resume_kernel                          0 #  Resume from which kernel (1= 1st kernel)
-resume_CTA                             0 #  resume from which CTA 
-checkpoint_CTA_t                       0 #  resume from which CTA 
-checkpoint_insn_Y                      0 #  resume from which CTA 
-gpgpu_ptx_convert_to_ptxplus                    0 # Convert SASS (native ISA) to ptxplus and run ptxplus
-gpgpu_ptx_force_max_capability                   70 # Force maximum compute capability
-gpgpu_ptx_inst_debug_to_file                    0 # Dump executed instructions' debug information to file
-gpgpu_ptx_inst_debug_file       inst_debug.txt # Executed instructions' debug output file
-gpgpu_ptx_inst_debug_thread_uid                    1 # Thread UID for executed instructions' debug output
-gpgpu_simd_model                       1 # 1 = post-dominator
-gpgpu_shader_core_pipeline              2048:32 # shader core pipeline config, i.e., {<nthread>:<warpsize>}
-gpgpu_tex_cache:l1  N:4:128:256,L:R:m:N:L,T:512:8,128:2 # per-shader L1 texture cache  (READ-ONLY) config  {<nsets>:<bsize>:<assoc>,<rep>:<wr>:<alloc>:<wr_alloc>,<mshr>:<N>:<merge>,<mq>:<rf>}
-gpgpu_const_cache:l1 N:128:64:8,L:R:f:N:L,S:2:64,4 # per-shader L1 constant memory cache  (READ-ONLY) config  {<nsets>:<bsize>:<assoc>,<rep>:<wr>:<alloc>:<wr_alloc>,<mshr>:<N>:<merge>,<mq>} 
-gpgpu_cache:il1     N:64:128:16,L:R:f:N:L,S:2:48,4 # shader L1 instruction cache config  {<nsets>:<bsize>:<assoc>,<rep>:<wr>:<alloc>:<wr_alloc>,<mshr>:<N>:<merge>,<mq>} 
-gpgpu_cache:dl1     S:1:128:256,L:L:s:N:L,A:256:8,16:0,32 # per-shader L1 data cache config  {<nsets>:<bsize>:<assoc>,<rep>:<wr>:<alloc>:<wr_alloc>,<mshr>:<N>:<merge>,<mq> | none}
-gpgpu_l1_banks                         4 # The number of L1 cache banks
-gpgpu_l1_banks_byte_interleaving                   32 # l1 banks byte interleaving granularity
-gpgpu_l1_banks_hashing_function                    0 # l1 banks hashing function
-gpgpu_l1_latency                      20 # L1 Hit Latency
-gpgpu_smem_latency                    20 # smem Latency
-gpgpu_cache:dl1PrefL1                 none # per-shader L1 data cache config  {<nsets>:<bsize>:<assoc>,<rep>:<wr>:<alloc>:<wr_alloc>,<mshr>:<N>:<merge>,<mq> | none}
-gpgpu_cache:dl1PrefShared                 none # per-shader L1 data cache config  {<nsets>:<bsize>:<assoc>,<rep>:<wr>:<alloc>:<wr_alloc>,<mshr>:<N>:<merge>,<mq> | none}
-gpgpu_gmem_skip_L1D                    0 # global memory access skip L1D cache (implements -Xptxas -dlcm=cg, default=no skip)
-gpgpu_perfect_mem                      0 # enable perfect memory mode (no cache miss)
-n_regfile_gating_group                    4 # group of lanes that should be read/written together)
-gpgpu_clock_gated_reg_file                    0 # enable clock gated reg file for power calculations
-gpgpu_clock_gated_lanes                    0 # enable clock gated lanes for power calculations
-gpgpu_shader_registers                65536 # Number of registers per shader core. Limits number of concurrent CTAs. (default 8192)
-gpgpu_registers_per_block                65536 # Maximum number of registers per CTA. (default 8192)
-gpgpu_ignore_resources_limitation                    0 # gpgpu_ignore_resources_limitation (default 0)
-gpgpu_shader_cta                      32 # Maximum number of concurrent CTAs in shader (default 8)
-gpgpu_num_cta_barriers                   16 # Maximum number of named barriers per CTA (default 16)
-gpgpu_n_clusters                      80 # number of processing clusters
-gpgpu_n_cores_per_cluster                    1 # number of simd cores per cluster
-gpgpu_n_cluster_ejection_buffer_size                   32 # number of packets in ejection buffer
-gpgpu_n_ldst_response_buffer_size                    2 # number of response packets in ld/st unit ejection buffer
-gpgpu_shmem_per_block                65536 # Size of shared memory per thread block or CTA (default 48kB)
-gpgpu_shmem_size                   98304 # Size of shared memory per shader core (default 16kB)
-gpgpu_adaptive_cache_config                    1 # adaptive_cache_config
-gpgpu_shmem_sizeDefault                98304 # Size of shared memory per shader core (default 16kB)
-gpgpu_shmem_size_PrefL1                16384 # Size of shared memory per shader core (default 16kB)
-gpgpu_shmem_size_PrefShared                16384 # Size of shared memory per shader core (default 16kB)
-gpgpu_shmem_num_banks                   32 # Number of banks in the shared memory in each shader core (default 16)
-gpgpu_shmem_limited_broadcast                    0 # Limit shared memory to do one broadcast per cycle (default on)
-gpgpu_shmem_warp_parts                    1 # Number of portions a warp is divided into for shared memory bank conflict check 
-gpgpu_mem_unit_ports                    1 # The number of memory transactions allowed per core cycle
-gpgpu_shmem_warp_parts                    1 # Number of portions a warp is divided into for shared memory bank conflict check 
-gpgpu_warpdistro_shader                   -1 # Specify which shader core to collect the warp size distribution from
-gpgpu_warp_issue_shader                    0 # Specify which shader core to collect the warp issue distribution from
-gpgpu_local_mem_map                    1 # Mapping from local memory space address to simulated GPU physical address space (default = enabled)
-gpgpu_num_reg_banks                   16 # Number of register banks (default = 8)
-gpgpu_reg_bank_use_warp_id                    0 # Use warp ID in mapping registers to banks (default = off)
-gpgpu_sub_core_model                    1 # Sub Core Volta/Pascal model (default = off)
-gpgpu_enable_specialized_operand_collector                    0 # enable_specialized_operand_collector
-gpgpu_operand_collector_num_units_sp                    4 # number of collector units (default = 4)
-gpgpu_operand_collector_num_units_dp                    0 # number of collector units (default = 0)
-gpgpu_operand_collector_num_units_sfu                    4 # number of collector units (default = 4)
-gpgpu_operand_collector_num_units_int                    0 # number of collector units (default = 0)
-gpgpu_operand_collector_num_units_tensor_core                    4 # number of collector units (default = 4)
-gpgpu_operand_collector_num_units_mem                    2 # number of collector units (default = 2)
-gpgpu_operand_collector_num_units_gen                    8 # number of collector units (default = 0)
-gpgpu_operand_collector_num_in_ports_sp                    1 # number of collector unit in ports (default = 1)
-gpgpu_operand_collector_num_in_ports_dp                    0 # number of collector unit in ports (default = 0)
-gpgpu_operand_collector_num_in_ports_sfu                    1 # number of collector unit in ports (default = 1)
-gpgpu_operand_collector_num_in_ports_int                    0 # number of collector unit in ports (default = 0)
-gpgpu_operand_collector_num_in_ports_tensor_core                    1 # number of collector unit in ports (default = 1)
-gpgpu_operand_collector_num_in_ports_mem                    1 # number of collector unit in ports (default = 1)
-gpgpu_operand_collector_num_in_ports_gen                    8 # number of collector unit in ports (default = 0)
-gpgpu_operand_collector_num_out_ports_sp                    1 # number of collector unit in ports (default = 1)
-gpgpu_operand_collector_num_out_ports_dp                    0 # number of collector unit in ports (default = 0)
-gpgpu_operand_collector_num_out_ports_sfu                    1 # number of collector unit in ports (default = 1)
-gpgpu_operand_collector_num_out_ports_int                    0 # number of collector unit in ports (default = 0)
-gpgpu_operand_collector_num_out_ports_tensor_core                    1 # number of collector unit in ports (default = 1)
-gpgpu_operand_collector_num_out_ports_mem                    1 # number of collector unit in ports (default = 1)
-gpgpu_operand_collector_num_out_ports_gen                    8 # number of collector unit in ports (default = 0)
-gpgpu_coalesce_arch                   60 # Coalescing arch (GT200 = 13, Fermi = 20)
-gpgpu_num_sched_per_core                    4 # Number of warp schedulers per core
-gpgpu_max_insn_issue_per_warp                    1 # Max number of instructions that can be issued per warp in one cycle by scheduler (either 1 or 2)
-gpgpu_dual_issue_diff_exec_units                    1 # should dual issue use two different execution unit resources (Default = 1)
-gpgpu_simt_core_sim_order                    1 # Select the simulation order of cores in a cluster (0=Fix, 1=Round-Robin)
-gpgpu_pipeline_widths 4,4,4,4,4,4,4,4,4,4,8,4,4 # Pipeline widths ID_OC_SP,ID_OC_DP,ID_OC_INT,ID_OC_SFU,ID_OC_MEM,OC_EX_SP,OC_EX_DP,OC_EX_INT,OC_EX_SFU,OC_EX_MEM,EX_WB,ID_OC_TENSOR_CORE,OC_EX_TENSOR_CORE
-gpgpu_tensor_core_avail                    1 # Tensor Core Available (default=0)
-gpgpu_num_sp_units                     4 # Number of SP units (default=1)
-gpgpu_num_dp_units                     4 # Number of DP units (default=0)
-gpgpu_num_int_units                    4 # Number of INT units (default=0)
-gpgpu_num_sfu_units                    4 # Number of SF units (default=1)
-gpgpu_num_tensor_core_units                    4 # Number of tensor_core units (default=1)
-gpgpu_num_mem_units                    1 # Number if ldst units (default=1) WARNING: not hooked up to anything
-gpgpu_scheduler                      gto # Scheduler configuration: < lrr | gto | two_level_active > If two_level_active:<num_active_warps>:<inner_prioritization>:<outer_prioritization>For complete list of prioritization values see shader.h enum scheduler_prioritization_typeDefault: gto
-gpgpu_concurrent_kernel_sm                    0 # Support concurrent kernels on a SM (default = disabled)
-gpgpu_perfect_inst_const_cache                    1 # perfect inst and const cache mode, so all inst and const hits in the cache(default = disabled)
-gpgpu_inst_fetch_throughput                    4 # the number of fetched intruction per warp each cycle
-gpgpu_reg_file_port_throughput                    2 # the number ports of the register file
-specialized_unit_1         0,4,4,4,4,BRA # specialized unit config {<enabled>,<num_units>:<latency>:<initiation>,<ID_OC_SPEC>:<OC_EX_SPEC>,<NAME>}
-specialized_unit_2         0,4,4,4,4,BRA # specialized unit config {<enabled>,<num_units>:<latency>:<initiation>,<ID_OC_SPEC>:<OC_EX_SPEC>,<NAME>}
-specialized_unit_3         0,4,4,4,4,BRA # specialized unit config {<enabled>,<num_units>:<latency>:<initiation>,<ID_OC_SPEC>:<OC_EX_SPEC>,<NAME>}
-specialized_unit_4         0,4,4,4,4,BRA # specialized unit config {<enabled>,<num_units>:<latency>:<initiation>,<ID_OC_SPEC>:<OC_EX_SPEC>,<NAME>}
-specialized_unit_5         0,4,4,4,4,BRA # specialized unit config {<enabled>,<num_units>:<latency>:<initiation>,<ID_OC_SPEC>:<OC_EX_SPEC>,<NAME>}
-specialized_unit_6         0,4,4,4,4,BRA # specialized unit config {<enabled>,<num_units>:<latency>:<initiation>,<ID_OC_SPEC>:<OC_EX_SPEC>,<NAME>}
-specialized_unit_7         0,4,4,4,4,BRA # specialized unit config {<enabled>,<num_units>:<latency>:<initiation>,<ID_OC_SPEC>:<OC_EX_SPEC>,<NAME>}
-specialized_unit_8         0,4,4,4,4,BRA # specialized unit config {<enabled>,<num_units>:<latency>:<initiation>,<ID_OC_SPEC>:<OC_EX_SPEC>,<NAME>}
-gpgpu_perf_sim_memcpy                    1 # Fill the L2 cache on memcpy
-gpgpu_simple_dram_model                    0 # simple_dram_model with fixed latency and BW
-gpgpu_dram_scheduler                    1 # 0 = fifo, 1 = FR-FCFS (defaul)
-gpgpu_dram_partition_queues          64:64:64:64 # i2$:$2d:d2$:$2i
-l2_ideal                               0 # Use a ideal L2 cache that always hit
-gpgpu_cache:dl2     S:32:128:24,L:B:m:L:P,A:192:4,32:0,32 # unified banked L2 data cache config  {<nsets>:<bsize>:<assoc>,<rep>:<wr>:<alloc>:<wr_alloc>,<mshr>:<N>:<merge>,<mq>}
-gpgpu_cache:dl2_texture_only                    0 # L2 cache used for texture only
-gpgpu_n_mem                           32 # number of memory modules (e.g. memory controllers) in gpu
-gpgpu_n_sub_partition_per_mchannel                    2 # number of memory subpartition in each memory module
-gpgpu_n_mem_per_ctrlr                    1 # number of memory chips per memory controller
-gpgpu_memlatency_stat                   14 # track and display latency statistics 0x2 enables MC, 0x4 enables queue logs
-gpgpu_frfcfs_dram_sched_queue_size                   64 # 0 = unlimited (default); # entries per chip
-gpgpu_dram_return_queue_size                  192 # 0 = unlimited (default); # entries per chip
-gpgpu_dram_buswidth                   16 # default = 4 bytes (8 bytes per cycle at DDR)
-gpgpu_dram_burst_length                    2 # Burst length of each DRAM request (default = 4 data bus cycle)
-dram_data_command_freq_ratio                    2 # Frequency ratio between DRAM data bus and command bus (default = 2 times, i.e. DDR)
-gpgpu_dram_timing_opt nbk=16:CCD=1:RRD=3:RCD=12:RAS=28:RP=12:RC=40: CL=12:WL=2:CDLR=3:WR=10:nbkgrp=4:CCDL=2:RTPL=3 # DRAM timing parameters = {nbk:tCCD:tRRD:tRCD:tRAS:tRP:tRC:CL:WL:tCDLR:tWR:nbkgrp:tCCDL:tRTPL}
-gpgpu_l2_rop_latency                  160 # ROP queue latency (default 85)
-dram_latency                         100 # DRAM latency (default 30)
-dram_dual_bus_interface                    1 # dual_bus_interface (default = 0) 
-dram_bnk_indexing_policy                    0 # dram_bnk_indexing_policy (0 = normal indexing, 1 = Xoring with the higher bits) (Default = 0)
-dram_bnkgrp_indexing_policy                    1 # dram_bnkgrp_indexing_policy (0 = take higher bits, 1 = take lower bits) (Default = 0)
-dram_seperate_write_queue_enable                    0 # Seperate_Write_Queue_Enable
-dram_write_queue_size             32:28:16 # Write_Queue_Size
-dram_elimnate_rw_turnaround                    0 # elimnate_rw_turnaround i.e set tWTR and tRTW = 0
-icnt_flit_size                        40 # icnt_flit_size
-gpgpu_mem_addr_mapping dramid@8;00000000.00000000.00000000.00000000.0000RRRR.RRRRRRRR.RBBBCCCB.CCCSSSSS # mapping memory address to dram model {dramid@<start bit>;<memory address map>}
-gpgpu_mem_addr_test                    0 # run sweep test to check address mapping for aliased address
-gpgpu_mem_address_mask                    1 # 0 = old addressing mask, 1 = new addressing mask, 2 = new add. mask + flipped bank sel and chip sel bits
-gpgpu_memory_partition_indexing                    2 # 0 = no indexing, 1 = bitwise xoring, 2 = IPoly, 3 = custom indexing
-gpuwattch_xml_file         gpuwattch.xml # GPUWattch XML file
-power_simulation_enabled                    0 # Turn on power simulator (1=On, 0=Off)
-power_per_cycle_dump                    0 # Dump detailed power output each cycle
-power_trace_enabled                    0 # produce a file for the power trace (1=On, 0=Off)
-power_trace_zlevel                     6 # Compression level of the power trace output log (0=no comp, 9=highest)
-steady_power_levels_enabled                    0 # produce a file for the steady power levels (1=On, 0=Off)
-steady_state_definition                  8:4 # allowed deviation:number of samples
-gpgpu_max_cycle                        0 # terminates gpu simulation early (0 = no limit)
-gpgpu_max_insn                 100000000 # terminates gpu simulation early (0 = no limit)
-gpgpu_max_cta                          0 # terminates gpu simulation early (0 = no limit)
-gpgpu_max_completed_cta                    0 # terminates gpu simulation early (0 = no limit)
-gpgpu_runtime_stat                   500 # display runtime statistics such as dram utilization {<freq>:<flag>}
-liveness_message_freq                    1 # Minimum number of seconds between simulation liveness messages (0 = always print)
-gpgpu_compute_capability_major                    7 # Major compute capability version number
-gpgpu_compute_capability_minor                    0 # Minor compute capability version number
-gpgpu_flush_l1_cache                    1 # Flush L1 cache at the end of each kernel call
-gpgpu_flush_l2_cache                    0 # Flush L2 cache at the end of each kernel call
-gpgpu_deadlock_detect                    1 # Stop the simulation at deadlock (1=on (default), 0=off)
-gpgpu_ptx_instruction_classification                    0 # if enabled will classify ptx instruction types per kernel (Max 255 kernels now)
-gpgpu_ptx_sim_mode                     0 # Select between Performance (default) or Functional simulation (1)
-gpgpu_clock_domains 1132.0:1132.0:1132.0:850.0 # Clock Domain Frequencies in MhZ {<Core Clock>:<ICNT Clock>:<L2 Clock>:<DRAM Clock>}
-gpgpu_max_concurrent_kernel                    8 # maximum kernels that can run concurrently on GPU
-gpgpu_cflog_interval                    0 # Interval between each snapshot in control flow logger
-visualizer_enabled                     0 # Turn on visualizer output (1=On, 0=Off)
-visualizer_outputfile                 NULL # Specifies the output log file for visualizer
-visualizer_zlevel                      6 # Compression level of the visualizer output log (0=no comp, 9=highest)
-gpgpu_stack_size_limit                 1024 # GPU thread stack size
-gpgpu_heap_size_limit              8388608 # GPU malloc heap size 332b2aecc87cc02a87d30f210e438b23  /root/gpgpu-sim_distribution/test/FinalProj_Task2/ISPASS_SM7_QV100_enabled/LPS/ispass-2009-LPS
Extracting PTX file and ptxas options    1: ispass-2009-LPS.1.sm_30.ptx -arch=sm_30
Extracting PTX file and ptxas options    2: ispass-2009-LPS.2.sm_35.ptx -arch=sm_35
Extracting PTX file and ptxas options    3: ispass-2009-LPS.3.sm_50.ptx -arch=sm_50
Extracting PTX file and ptxas options    4: ispass-2009-LPS.4.sm_60.ptx -arch=sm_60
Extracting PTX file and ptxas options    5: ispass-2009-LPS.5.sm_62.ptx -arch=sm_62

-gpgpu_runtime_sync_depth_limit                    2 # GPU device runtime synchronize depth
-gpgpu_runtime_pending_launch_count_limit                 2048 # GPU device runtime pending launch count
-trace_enabled                          0 # Turn on traces
-trace_components                    none # comma seperated list of traces to enable. Complete list found in trace_streams.tup. Default none
-trace_sampling_core                    0 # The core which is printed using CORE_DPRINTF. Default 0
-trace_sampling_memory_partition                   -1 # The memory partition which is printed using MEMPART_DPRINTF. Default -1 (i.e. all)
-enable_ptx_file_line_stats                    1 # Turn on PTX source line statistic profiling. (1 = On)
-ptx_line_stats_filename gpgpu_inst_stats.txt # Output file for PTX source line statistics.
-gpgpu_kernel_launch_latency                 5000 # Kernel launch latency in cycles. Default: 0
-gpgpu_cdp_enabled                      0 # Turn on CDP
-gpgpu_TB_launch_latency                    0 # thread block launch latency in cycles. Default: 0
DRAM Timing Options:
nbk                                    16 # number of banks
CCD                                     1 # column to column delay
RRD                                     3 # minimal delay between activation of rows in different banks
RCD                                    12 # row to column delay
RAS                                    28 # time needed to activate row
RP                                     12 # time needed to precharge (deactivate) row
RC                                     40 # row cycle time
CDLR                                    3 # switching from write to read (changes tWTR)
WR                                     10 # last data-in to row precharge
CL                                     12 # CAS latency
WL                                      2 # Write latency
nbkgrp                                  4 # number of bank groups
CCDL                                    2 # column to column delay between accesses to different bank groups
RTPL                                    3 # read to precharge delay between accesses to different bank groups
Total number of memory sub partition = 64
addr_dec_mask[CHIP]  = 0000000000001f00 	high:13 low:8
addr_dec_mask[BK]    = 00000000000e2000 	high:20 low:13
addr_dec_mask[ROW]   = 00000001fff00000 	high:33 low:20
addr_dec_mask[COL]   = 000000000001c0ff 	high:17 low:0
addr_dec_mask[BURST] = 000000000000001f 	high:5 low:0
sub_partition_id_mask = 0000000000002000
GPGPU-Sim uArch: clock freqs: 1132000000.000000:1132000000.000000:1132000000.000000:850000000.000000
GPGPU-Sim uArch: clock periods: 0.00000000088339222615:0.00000000088339222615:0.00000000088339222615:0.00000000117647058824
*** Initializing Memory Statistics ***
GPGPU-Sim uArch: performance model initialization complete.
***ProfileDump.txt not found. Entering PROFILING Mode***
self exe links to: /root/gpgpu-sim_distribution/test/FinalProj_Task2/ISPASS_SM7_QV100_enabled/LPS/ispass-2009-LPS
self exe links to: /root/gpgpu-sim_distribution/test/FinalProj_Task2/ISPASS_SM7_QV100_enabled/LPS/ispass-2009-LPS
10.1
GPGPU-Sim PTX: __cudaRegisterFatBinary, fat_cubin_handle = 1, filename=default
self exe links to: /root/gpgpu-sim_distribution/test/FinalProj_Task2/ISPASS_SM7_QV100_enabled/LPS/ispass-2009-LPS
Running md5sum using "md5sum /root/gpgpu-sim_distribution/test/FinalProj_Task2/ISPASS_SM7_QV100_enabled/LPS/ispass-2009-LPS "
self exe links to: /root/gpgpu-sim_distribution/test/FinalProj_Task2/ISPASS_SM7_QV100_enabled/LPS/ispass-2009-LPS
Extracting specific PTX file named ispass-2009-LPS.1.sm_30.ptx 
Extracting specific PTX file named ispass-2009-LPS.2.sm_35.ptx 
Extracting specific PTX file named ispass-2009-LPS.3.sm_50.ptx 
Extracting specific PTX file named ispass-2009-LPS.4.sm_60.ptx 
Extracting specific PTX file named ispass-2009-LPS.5.sm_62.ptx 
GPGPU-Sim PTX: __cudaRegisterFunction _Z13GPU_laplace3diiiiPfS_ : hostFun 0x0x4046d0, fat_cubin_handle = 1
GPGPU-Sim PTX: Parsing ispass-2009-LPS.1.sm_30.ptx
GPGPU-Sim PTX: allocating shared region for "_ZZ13GPU_laplace3diiiiPfS_E2u1" from 0x0 to 0x990 (shared memory space)
GPGPU-Sim PTX: instruction assembly for function '_Z13GPU_laplace3diiiiPfS_'...   done.
GPGPU-Sim PTX: finished parsing EMBEDDED .ptx file ispass-2009-LPS.1.sm_30.ptx
GPGPU-Sim PTX: Parsing ispass-2009-LPS.2.sm_35.ptx
GPGPU-Sim PTX: Warning %p0 was declared previous at ispass-2009-LPS.1.sm_30.ptx:25 skipping new declaration
GPGPU-Sim PTX: Warning %p1 was declared previous at ispass-2009-LPS.1.sm_30.ptx:25 skipping new declaration
GPGPU-Sim PTX: Warning %p2 was declared previous at ispass-2009-LPS.1.sm_30.ptx:25 skipping new declaration
GPGPU-Sim PTX: Warning %p3 was declared previous at ispass-2009-LPS.1.sm_30.ptx:25 skipping new declaration
GPGPU-Sim PTX: Warning %p4 was declared previous at ispass-2009-LPS.1.sm_30.ptx:25 skipping new declaration
GPGPU-Sim PTX: Warning %p5 was declared previous at ispass-2009-LPS.1.sm_30.ptx:25 skipping new declaration
GPGPU-Sim PTX: Warning %p6 was declared previous at ispass-2009-LPS.1.sm_30.ptx:25 skipping new declaration
GPGPU-Sim PTX: Warning %p7 was declared previous at ispass-2009-LPS.1.sm_30.ptx:25 skipping new declaration
GPGPU-Sim PTX: Warning %p8 was declared previous at ispass-2009-LPS.1.sm_30.ptx:25 skipping new declaration
GPGPU-Sim PTX: Warning %p9 was declared previous at ispass-2009-LPS.1.sm_30.ptx:25 skipping new declaration
GPGPU-Sim PTX: Warning %p10 was declared previous at ispass-2009-LPS.1.sm_30.ptx:25 skipping new declaration
GPGPU-Sim PTX: Warning %p11 was declared previous at ispass-2009-LPS.1.sm_30.ptx:25 skipping new declaration
GPGPU-Sim PTX: Warning %p12 was declared previous at ispass-2009-LPS.1.sm_30.ptx:25 skipping new declaration
GPGPU-Sim PTX: Warning %p13 was declared previous at ispass-2009-LPS.1.sm_30.ptx:25 skipping new declaration
GPGPU-Sim PTX: Warning %p14 was declared previous at ispass-2009-LPS.1.sm_30.ptx:25 skipping new declaration
GPGPU-Sim PTX: Warning %p15 was declared previous at ispass-2009-LPS.1.sm_30.ptx:25 skipping new declaration
GPGPU-Sim PTX: Warning %p16 was declared previous at ispass-2009-LPS.1.sm_30.ptx:25 skipping new declaration
GPGPU-Sim PTX: Warning %p17 was declared previous at ispass-2009-LPS.1.sm_30.ptx:25 skipping new declaration
GPGPU-Sim PTX: Warning %p18 was declared previous at ispass-2009-LPS.1.sm_30.ptx:25 skipping new declaration
GPGPU-Sim PTX: Warning %p19 was declared previous at ispass-2009-LPS.1.sm_30.ptx:25 skipping new declaration
GPGPU-Sim PTX: Warning %p20 was declared previous at ispass-2009-LPS.1.sm_30.ptx:25 skipping new declaration
GPGPU-Sim PTX: Warning %p21 was declared previous at ispass-2009-LPS.1.sm_30.ptx:25 skipping new declaration
GPGPU-Sim PTX: Warning %p22 was declared previous at ispass-2009-LPS.1.sm_30.ptx:25 skipping new declaration
GPGPU-Sim PTX: Warning %p23 was declared previous at ispass-2009-LPS.1.sm_30.ptx:25 skipping new declaration
GPGPU-Sim PTX: Warning %p24 was declared previous at ispass-2009-LPS.1.sm_30.ptx:25 skipping new declaration
GPGPU-Sim PTX: Warning %p25 was declared previous at ispass-2009-LPS.1.sm_30.ptx:25 skipping new declaration
GPGPU-Sim PTX: Warning %p26 was declared previous at ispass-2009-LPS.1.sm_30.ptx:25 skipping new declaration
GPGPU-Sim PTX: Warning %p27 was declared previous at ispass-2009-LPS.1.sm_30.ptx:25 skipping new declaration
GPGPU-Sim PTX: Warning %p28 was declared previous at ispass-2009-LPS.1.sm_30.ptx:25 skipping new declaration
GPGPU-Sim PTX: Warning %p29 was declared previous at ispass-2009-LPS.1.sm_30.ptx:25 skipping new declaration
GPGPU-Sim PTX: Warning %p30 was declared previous at ispass-2009-LPS.1.sm_30.ptx:25 skipping new declaration
GPGPU-Sim PTX: Warning %p31 was declared previous at ispass-2009-LPS.1.sm_30.ptx:25 skipping new declaration
GPGPU-Sim PTX: Warning %p32 was declared previous at ispass-2009-LPS.1.sm_30.ptx:25 skipping new declaration
GPGPU-Sim PTX: Warning %p33 was declared previous at ispass-2009-LPS.1.sm_30.ptx:25 skipping new declaration
GPGPU-Sim PTX: Warning %p34 was declared previous at ispass-2009-LPS.1.sm_30.ptx:25 skipping new declaration
GPGPU-Sim PTX: Warning %p35 was declared previous at ispass-2009-LPS.1.sm_30.ptx:25 skipping new declaration
GPGPU-Sim PTX: Warning %p36 was declared previous at ispass-2009-LPS.1.sm_30.ptx:25 skipping new declaration
GPGPU-Sim PTX: Warning %p37 was declared previous at ispass-2009-LPS.1.sm_30.ptx:25 skipping new declaration
GPGPU-Sim PTX: Warning %p38 was declared previous at ispass-2009-LPS.1.sm_30.ptx:25 skipping new declaration
GPGPU-Sim PTX: Warning %p39 was declared previous at ispass-2009-LPS.1.sm_30.ptx:25 skipping new declaration
GPGPU-Sim PTX: Warning %p40 was declared previous at ispass-2009-LPS.1.sm_30.ptx:25 skipping new declaration
GPGPU-Sim PTX: Warning %p41 was declared previous at ispass-2009-LPS.1.sm_30.ptx:25 skipping new declaration
GPGPU-Sim PTX: Warning %p42 was declared previous at ispass-2009-LPS.1.sm_30.ptx:25 skipping new declaration
GPGPU-Sim PTX: Warning %p43 was declared previous at ispass-2009-LPS.1.sm_30.ptx:25 skipping new declaration
GPGPU-Sim PTX: Warning %p44 was declared previous at ispass-2009-LPS.1.sm_30.ptx:25 skipping new declaration
GPGPU-Sim PTX: Warning %p45 was declared previous at ispass-2009-LPS.1.sm_30.ptx:25 skipping new declaration
GPGPU-Sim PTX: Warning %p46 was declared previous at ispass-2009-LPS.1.sm_30.ptx:25 skipping new declaration
GPGPU-Sim PTX: Warning %p47 was declared previous at ispass-2009-LPS.1.sm_30.ptx:25 skipping new declaration
GPGPU-Sim PTX: Warning %p48 was declared previous at ispass-2009-LPS.1.sm_30.ptx:25 skipping new declaration
GPGPU-Sim PTX: Warning %p49 was declared previous at ispass-2009-LPS.1.sm_30.ptx:25 skipping new declaration
GPGPU-Sim PTX: Warning %p50 was declared previous at ispass-2009-LPS.1.sm_30.ptx:25 skipping new declaration
GPGPU-Sim PTX: Warning %p51 was declared previous at ispass-2009-LPS.1.sm_30.ptx:25 skipping new declaration
GPGPU-Sim PTX: Warning %p52 was declared previous at ispass-2009-LPS.1.sm_30.ptx:25 skipping new declaration
GPGPU-Sim PTX: Warning %p53 was declared previous at ispass-2009-LPS.1.sm_30.ptx:25 skipping new declaration
GPGPU-Sim PTX: Warning %p54 was declared previous at ispass-2009-LPS.1.sm_30.ptx:25 skipping new declaration
GPGPU-Sim PTX: Warning %p55 was declared previous at ispass-2009-LPS.1.sm_30.ptx:25 skipping new declaration
GPGPU-Sim PTX: Warning %p56 was declared previous at ispass-2009-LPS.1.sm_30.ptx:25 skipping new declaration
GPGPU-Sim PTX: Warning %p57 was declared previous at ispass-2009-LPS.1.sm_30.ptx:25 skipping new declaration
GPGPU-Sim PTX: Warning %p58 was declared previous at ispass-2009-LPS.1.sm_30.ptx:25 skipping new declaration
GPGPU-Sim PTX: Warning %p59 was declared previous at ispass-2009-LPS.1.sm_30.ptx:25 skipping new declaration
GPGPU-Sim PTX: Warning %p60 was declared previous at ispass-2009-LPS.1.sm_30.ptx:25 skipping new declaration
GPGPU-Sim PTX: Warning %p61 was declared previous at ispass-2009-LPS.1.sm_30.ptx:25 skipping new declaration
GPGPU-Sim PTX: Warning %p62 was declared previous at ispass-2009-LPS.1.sm_30.ptx:25 skipping new declaration
GPGPU-Sim PTX: Warning %p63 was declared previous at ispass-2009-LPS.1.sm_30.ptx:25 skipping new declaration
GPGPU-Sim PTX: Warning %p64 was declared previous at ispass-2009-LPS.1.sm_30.ptx:25 skipping new declaration
GPGPU-Sim PTX: Warning %p65 was declared previous at ispass-2009-LPS.1.sm_30.ptx:25 skipping new declaration
GPGPU-Sim PTX: Warning %p66 was declared previous at ispass-2009-LPS.1.sm_30.ptx:25 skipping new declaration
GPGPU-Sim PTX: Warning %p67 was declared previous at ispass-2009-LPS.1.sm_30.ptx:25 skipping new declaration
GPGPU-Sim PTX: Warning %p68 was declared previous at ispass-2009-LPS.1.sm_30.ptx:25 skipping new declaration
GPGPU-Sim PTX: Warning %p69 was declared previous at ispass-2009-LPS.1.sm_30.ptx:25 skipping new declaration
GPGPU-Sim PTX: Warning %f0 was declared previous at ispass-2009-LPS.1.sm_30.ptx:26 skipping new declaration
GPGPU-Sim PTX: Warning %f1 was declared previous at ispass-2009-LPS.1.sm_30.ptx:26 skipping new declaration
GPGPU-Sim PTX: Warning %f2 was declared previous at ispass-2009-LPS.1.sm_30.ptx:26 skipping new declaration
GPGPU-Sim PTX: Warning %f3 was declared previous at ispass-2009-LPS.1.sm_30.ptx:26 skipping new declaration
GPGPU-Sim PTX: Warning %f4 was declared previous at ispass-2009-LPS.1.sm_30.ptx:26 skipping new declaration
GPGPU-Sim PTX: Warning %f5 was declared previous at ispass-2009-LPS.1.sm_30.ptx:26 skipping new declaration
GPGPU-Sim PTX: Warning %f6 was declared previous at ispass-2009-LPS.1.sm_30.ptx:26 skipping new declaration
GPGPU-Sim PTX: Warning %f7 was declared previous at ispass-2009-LPS.1.sm_30.ptx:26 skipping new declaration
GPGPU-Sim PTX: Warning %f8 was declared previous at ispass-2009-LPS.1.sm_30.ptx:26 skipping new declaration
GPGPU-Sim PTX: Warning %f9 was declared previous at ispass-2009-LPS.1.sm_30.ptx:26 skipping new declaration
GPGPU-Sim PTX: Warning %f10 was declared previous at ispass-2009-LPS.1.sm_30.ptx:26 skipping new declaration
GPGPU-Sim PTX: Warning %f11 was declared previous at ispass-2009-LPS.1.sm_30.ptx:26 skipping new declaration
GPGPU-Sim PTX: Warning %f12 was declared previous at ispass-2009-LPS.1.sm_30.ptx:26 skipping new declaration
GPGPU-Sim PTX: Warning %f13 was declared previous at ispass-2009-LPS.1.sm_30.ptx:26 skipping new declaration
GPGPU-Sim PTX: Warning %f14 was declared previous at ispass-2009-LPS.1.sm_30.ptx:26 skipping new declaration
GPGPU-Sim PTX: Warning %f15 was declared previous at ispass-2009-LPS.1.sm_30.ptx:26 skipping new declaration
GPGPU-Sim PTX: Warning %f16 was declared previous at ispass-2009-LPS.1.sm_30.ptx:26 skipping new declaration
GPGPU-Sim PTX: Warning %f17 was declared previous at ispass-2009-LPS.1.sm_30.ptx:26 skipping new declaration
GPGPU-Sim PTX: Warning %f18 was declared previous at ispass-2009-LPS.1.sm_30.ptx:26 skipping new declaration
GPGPU-Sim PTX: Warning %f19 was declared previous at ispass-2009-LPS.1.sm_30.ptx:26 skipping new declaration
GPGPU-Sim PTX: Warning %f20 was declared previous at ispass-2009-LPS.1.sm_30.ptx:26 skipping new declaration
GPGPU-Sim PTX: Warning %f21 was declared previous at ispass-2009-LPS.1.sm_30.ptx:26 skipping new declaration
GPGPU-Sim PTX: Warning %f22 was declared previous at ispass-2009-LPS.1.sm_30.ptx:26 skipping new declaration
GPGPU-Sim PTX: Warning %f23 was declared previous at ispass-2009-LPS.1.sm_30.ptx:26 skipping new declaration
GPGPU-Sim PTX: Warning %f24 was declared previous at ispass-2009-LPS.1.sm_30.ptx:26 skipping new declaration
GPGPU-Sim PTX: Warning %f25 was declared previous at ispass-2009-LPS.1.sm_30.ptx:26 skipping new declaration
GPGPU-Sim PTX: Warning %f26 was declared previous at ispass-2009-LPS.1.sm_30.ptx:26 skipping new declaration
GPGPU-Sim PTX: Warning %f27 was declared previous at ispass-2009-LPS.1.sm_30.ptx:26 skipping new declaration
GPGPU-Sim PTX: Warning %f28 was declared previous at ispass-2009-LPS.1.sm_30.ptx:26 skipping new declaration
GPGPU-Sim PTX: Warning %f29 was declared previous at ispass-2009-LPS.1.sm_30.ptx:26 skipping new declaration
GPGPU-Sim PTX: Warning %f30 was declared previous at ispass-2009-LPS.1.sm_30.ptx:26 skipping new declaration
GPGPU-Sim PTX: Warning %f31 was declared previous at ispass-2009-LPS.1.sm_30.ptx:26 skipping new declaration
GPGPU-Sim PTX: Warning %f32 was declared previous at ispass-2009-LPS.1.sm_30.ptx:26 skipping new declaration
GPGPU-Sim PTX: Warning %f33 was declared previous at ispass-2009-LPS.1.sm_30.ptx:26 skipping new declaration
GPGPU-Sim PTX: Warning %f34 was declared previous at ispass-2009-LPS.1.sm_30.ptx:26 skipping new declaration
GPGPU-Sim PTX: Warning %f35 was declared previous at ispass-2009-LPS.1.sm_30.ptx:26 skipping new declaration
GPGPU-Sim PTX: Warning %f36 was declared previous at ispass-2009-LPS.1.sm_30.ptx:26 skipping new declaration
GPGPU-Sim PTX: Warning %f37 was declared previous at ispass-2009-LPS.1.sm_30.ptx:26 skipping new declaration
GPGPU-Sim PTX: Warning %f38 was declared previous at ispass-2009-LPS.1.sm_30.ptx:26 skipping new declaration
GPGPU-Sim PTX: Warning %f39 was declared previous at ispass-2009-LPS.1.sm_30.ptx:26 skipping new declaration
GPGPU-Sim PTX: Warning %f40 was declared previous at ispass-2009-LPS.1.sm_30.ptx:26 skipping new declaration
GPGPU-Sim PTX: Warning %f41 was declared previous at ispass-2009-LPS.1.sm_30.ptx:26 skipping new declaration
GPGPU-Sim PTX: Warning %f42 was declared previous at ispass-2009-LPS.1.sm_30.ptx:26 skipping new declaration
GPGPU-Sim PTX: Warning %f43 was declared previous at ispass-2009-LPS.1.sm_30.ptx:26 skipping new declaration
GPGPU-Sim PTX: Warning %f44 was declared previous at ispass-2009-LPS.1.sm_30.ptx:26 skipping new declaration
GPGPU-Sim PTX: Warning %f45 was declared previous at ispass-2009-LPS.1.sm_30.ptx:26 skipping new declaration
GPGPU-Sim PTX: Warning %f46 was declared previous at ispass-2009-LPS.1.sm_30.ptx:26 skipping new declaration
GPGPU-Sim PTX: Warning %f47 was declared previous at ispass-2009-LPS.1.sm_30.ptx:26 skipping new declaration
GPGPU-Sim PTX: Warning %f48 was declared previous at ispass-2009-LPS.1.sm_30.ptx:26 skipping new declaration
GPGPU-Sim PTX: Warning %f49 was declared previous at ispass-2009-LPS.1.sm_30.ptx:26 skipping new declaration
GPGPU-Sim PTX: Warning %f50 was declared previous at ispass-2009-LPS.1.sm_30.ptx:26 skipping new declaration
GPGPU-Sim PTX: Warning %f51 was declared previous at ispass-2009-LPS.1.sm_30.ptx:26 skipping new declaration
GPGPU-Sim PTX: Warning %f52 was declared previous at ispass-2009-LPS.1.sm_30.ptx:26 skipping new declaration
GPGPU-Sim PTX: Warning %f53 was declared previous at ispass-2009-LPS.1.sm_30.ptx:26 skipping new declaration
GPGPU-Sim PTX: Warning %f54 was declared previous at ispass-2009-LPS.1.sm_30.ptx:26 skipping new declaration
GPGPU-Sim PTX: Warning %f55 was declared previous at ispass-2009-LPS.1.sm_30.ptx:26 skipping new declaration
GPGPU-Sim PTX: Warning %f56 was declared previous at ispass-2009-LPS.1.sm_30.ptx:26 skipping new declaration
GPGPU-Sim PTX: Warning %f57 was declared previous at ispass-2009-LPS.1.sm_30.ptx:26 skipping new declaration
GPGPU-Sim PTX: Warning %f58 was declared previous at ispass-2009-LPS.1.sm_30.ptx:26 skipping new declaration
GPGPU-Sim PTX: Warning %f59 was declared previous at ispass-2009-LPS.1.sm_30.ptx:26 skipping new declaration
GPGPU-Sim PTX: Warning %f60 was declared previous at ispass-2009-LPS.1.sm_30.ptx:26 skipping new declaration
GPGPU-Sim PTX: Warning %f61 was declared previous at ispass-2009-LPS.1.sm_30.ptx:26 skipping new declaration
GPGPU-Sim PTX: Warning %f62 was declared previous at ispass-2009-LPS.1.sm_30.ptx:26 skipping new declaration
GPGPU-Sim PTX: Warning %f63 was declared previous at ispass-2009-LPS.1.sm_30.ptx:26 skipping new declaration
GPGPU-Sim PTX: Warning %f64 was declared previous at ispass-2009-LPS.1.sm_30.ptx:26 skipping new declaration
GPGPU-Sim PTX: Warning %f65 was declared previous at ispass-2009-LPS.1.sm_30.ptx:26 skipping new declaration
GPGPU-Sim PTX: Warning %f66 was declared previous at ispass-2009-LPS.1.sm_30.ptx:26 skipping new declaration
GPGPU-Sim PTX: Warning %f67 was declared previous at ispass-2009-LPS.1.sm_30.ptx:26 skipping new declaration
GPGPU-Sim PTX: Warning %f68 was declared previous at ispass-2009-LPS.1.sm_30.ptx:26 skipping new declaration
GPGPU-Sim PTX: Warning %f69 was declared previous at ispass-2009-LPS.1.sm_30.ptx:26 skipping new declaration
GPGPU-Sim PTX: Warning %f70 was declared previous at ispass-2009-LPS.1.sm_30.ptx:26 skipping new declaration
GPGPU-Sim PTX: Warning %f71 was declared previous at ispass-2009-LPS.1.sm_30.ptx:26 skipping new declaration
GPGPU-Sim PTX: Warning %f72 was declared previous at ispass-2009-LPS.1.sm_30.ptx:26 skipping new declaration
GPGPU-Sim PTX: Warning %f73 was declared previous at ispass-2009-LPS.1.sm_30.ptx:26 skipping new declaration
GPGPU-Sim PTX: Warning %f74 was declared previous at ispass-2009-LPS.1.sm_30.ptx:26 skipping new declaration
GPGPU-Sim PTX: Warning %f75 was declared previous at ispass-2009-LPS.1.sm_30.ptx:26 skipping new declaration
GPGPU-Sim PTX: Warning %f76 was declared previous at ispass-2009-LPS.1.sm_30.ptx:26 skipping new declaration
GPGPU-Sim PTX: Warning %f77 was declared previous at ispass-2009-LPS.1.sm_30.ptx:26 skipping new declaration
GPGPU-Sim PTX: Warning %f78 was declared previous at ispass-2009-LPS.1.sm_30.ptx:26 skipping new declaration
GPGPU-Sim PTX: Warning %f79 was declared previous at ispass-2009-LPS.1.sm_30.ptx:26 skipping new declaration
GPGPU-Sim PTX: Warning %f80 was declared previous at ispass-2009-LPS.1.sm_30.ptx:26 skipping new declaration
GPGPU-Sim PTX: Warning %f81 was declared previous at ispass-2009-LPS.1.sm_30.ptx:26 skipping new declaration
GPGPU-Sim PTX: Warning %f82 was declared previous at ispass-2009-LPS.1.sm_30.ptx:26 skipping new declaration
GPGPU-Sim PTX: Warning %f83 was declared previous at ispass-2009-LPS.1.sm_30.ptx:26 skipping new declaration
GPGPU-Sim PTX: Warning %f84 was declared previous at ispass-2009-LPS.1.sm_30.ptx:26 skipping new declaration
GPGPU-Sim PTX: Warning %f85 was declared previous at ispass-2009-LPS.1.sm_30.ptx:26 skipping new declaration
GPGPU-Sim PTX: Warning %f86 was declared previous at ispass-2009-LPS.1.sm_30.ptx:26 skipping new declaration
GPGPU-Sim PTX: Warning %f87 was declared previous at ispass-2009-LPS.1.sm_30.ptx:26 skipping new declaration
GPGPU-Sim PTX: Warning %f88 was declared previous at ispass-2009-LPS.1.sm_30.ptx:26 skipping new declaration
GPGPU-Sim PTX: Warning %f89 was declared previous at ispass-2009-LPS.1.sm_30.ptx:26 skipping new declaration
GPGPU-Sim PTX: Warning %f90 was declared previous at ispass-2009-LPS.1.sm_30.ptx:26 skipping new declaration
GPGPU-Sim PTX: Warning %f91 was declared previous at ispass-2009-LPS.1.sm_30.ptx:26 skipping new declaration
GPGPU-Sim PTX: Warning %f92 was declared previous at ispass-2009-LPS.1.sm_30.ptx:26 skipping new declaration
GPGPU-Sim PTX: Warning %f93 was declared previous at ispass-2009-LPS.1.sm_30.ptx:26 skipping new declaration
GPGPU-Sim PTX: Warning %f94 was declared previous at ispass-2009-LPS.1.sm_30.ptx:26 skipping new declaration
GPGPU-Sim PTX: Warning %f95 was declared previous at ispass-2009-LPS.1.sm_30.ptx:26 skipping new declaration
GPGPU-Sim PTX: Warning %f96 was declared previous at ispass-2009-LPS.1.sm_30.ptx:26 skipping new declaration
GPGPU-Sim PTX: Warning %f97 was declared previous at ispass-2009-LPS.1.sm_30.ptx:26 skipping new declaration
GPGPU-Sim PTX: Warning %f98 was declared previous at ispass-2009-LPS.1.sm_30.ptx:26 skipping new declaration
GPGPU-Sim PTX: Warning %f99 was declared previous at ispass-2009-LPS.1.sm_30.ptx:26 skipping new declaration
GPGPU-Sim PTX: Warning %f100 was declared previous at ispass-2009-LPS.1.sm_30.ptx:26 skipping new declaration
GPGPU-Sim PTX: Warning %f101 was declared previous at ispass-2009-LPS.1.sm_30.ptx:26 skipping new declaration
GPGPU-Sim PTX: Warning %f102 was declared previous at ispass-2009-LPS.1.sm_30.ptx:26 skipping new declaration
GPGPU-Sim PTX: Warning %f103 was declared previous at ispass-2009-LPS.1.sm_30.ptx:26 skipping new declaration
GPGPU-Sim PTX: Warning %f104 was declared previous at ispass-2009-LPS.1.sm_30.ptx:26 skipping new declaration
GPGPU-Sim PTX: Warning %f105 was declared previous at ispass-2009-LPS.1.sm_30.ptx:26 skipping new declaration
GPGPU-Sim PTX: Warning %f106 was declared previous at ispass-2009-LPS.1.sm_30.ptx:26 skipping new declaration
GPGPU-Sim PTX: Warning %f107 was declared previous at ispass-2009-LPS.1.sm_30.ptx:26 skipping new declaration
GPGPU-Sim PTX: Warning %f108 was declared previous at ispass-2009-LPS.1.sm_30.ptx:26 skipping new declaration
GPGPU-Sim PTX: Warning %f109 was declared previous at ispass-2009-LPS.1.sm_30.ptx:26 skipping new declaration
GPGPU-Sim PTX: Warning %f110 was declared previous at ispass-2009-LPS.1.sm_30.ptx:26 skipping new declaration
GPGPU-Sim PTX: Warning %f111 was declared previous at ispass-2009-LPS.1.sm_30.ptx:26 skipping new declaration
GPGPU-Sim PTX: Warning %f112 was declared previous at ispass-2009-LPS.1.sm_30.ptx:26 skipping new declaration
GPGPU-Sim PTX: Warning %f113 was declared previous at ispass-2009-LPS.1.sm_30.ptx:26 skipping new declaration
GPGPU-Sim PTX: Warning %f114 was declared previous at ispass-2009-LPS.1.sm_30.ptx:26 skipping new declaration
GPGPU-Sim PTX: Warning %f115 was declared previous at ispass-2009-LPS.1.sm_30.ptx:26 skipping new declaration
GPGPU-Sim PTX: Warning %f116 was declared previous at ispass-2009-LPS.1.sm_30.ptx:26 skipping new declaration
GPGPU-Sim PTX: Warning %f117 was declared previous at ispass-2009-LPS.1.sm_30.ptx:26 skipping new declaration
GPGPU-Sim PTX: Warning %f118 was declared previous at ispass-2009-LPS.1.sm_30.ptx:26 skipping new declaration
GPGPU-Sim PTX: Warning %f119 was declared previous at ispass-2009-LPS.1.sm_30.ptx:26 skipping new declaration
GPGPU-Sim PTX: Warning %f120 was declared previous at ispass-2009-LPS.1.sm_30.ptx:26 skipping new declaration
GPGPU-Sim PTX: Warning %f121 was declared previous at ispass-2009-LPS.1.sm_30.ptx:26 skipping new declaration
GPGPU-Sim PTX: Warning %f122 was declared previous at ispass-2009-LPS.1.sm_30.ptx:26 skipping new declaration
GPGPU-Sim PTX: Warning %f123 was declared previous at ispass-2009-LPS.1.sm_30.ptx:26 skipping new declaration
GPGPU-Sim PTX: Warning %f124 was declared previous at ispass-2009-LPS.1.sm_30.ptx:26 skipping new declaration
GPGPU-Sim PTX: Warning %f125 was declared previous at ispass-2009-LPS.1.sm_30.ptx:26 skipping new declaration
GPGPU-Sim PTX: Warning %f126 was declared previous at ispass-2009-LPS.1.sm_30.ptx:26 skipping new declaration
GPGPU-Sim PTX: Warning %f127 was declared previous at ispass-2009-LPS.1.sm_30.ptx:26 skipping new declaration
GPGPU-Sim PTX: Warning %f128 was declared previous at ispass-2009-LPS.1.sm_30.ptx:26 skipping new declaration
GPGPU-Sim PTX: Warning %f129 was declared previous at ispass-2009-LPS.1.sm_30.ptx:26 skipping new declaration
GPGPU-Sim PTX: Warning %f130 was declared previous at ispass-2009-LPS.1.sm_30.ptx:26 skipping new declaration
GPGPU-Sim PTX: Warning %f131 was declared previous at ispass-2009-LPS.1.sm_30.ptx:26 skipping new declaration
GPGPU-Sim PTX: Warning %f132 was declared previous at ispass-2009-LPS.1.sm_30.ptx:26 skipping new declaration
GPGPU-Sim PTX: Warning %f133 was declared previous at ispass-2009-LPS.1.sm_30.ptx:26 skipping new declaration
GPGPU-Sim PTX: Warning %f134 was declared previous at ispass-2009-LPS.1.sm_30.ptx:26 skipping new declaration
GPGPU-Sim PTX: Warning %f135 was declared previous at ispass-2009-LPS.1.sm_30.ptx:26 skipping new declaration
GPGPU-Sim PTX: Warning %r0 was declared previous at ispass-2009-LPS.1.sm_30.ptx:27 skipping new declaration
GPGPU-Sim PTX: Warning %r1 was declared previous at ispass-2009-LPS.1.sm_30.ptx:27 skipping new declaration
GPGPU-Sim PTX: Warning %r2 was declared previous at ispass-2009-LPS.1.sm_30.ptx:27 skipping new declaration
GPGPU-Sim PTX: Warning %r3 was declared previous at ispass-2009-LPS.1.sm_30.ptx:27 skipping new declaration
GPGPU-Sim PTX: Warning %r4 was declared previous at ispass-2009-LPS.1.sm_30.ptx:27 skipping new declaration
GPGPU-Sim PTX: Warning %r5 was declared previous at ispass-2009-LPS.1.sm_30.ptx:27 skipping new declaration
GPGPU-Sim PTX: Warning %r6 was declared previous at ispass-2009-LPS.1.sm_30.ptx:27 skipping new declaration
GPGPU-Sim PTX: Warning %r7 was declared previous at ispass-2009-LPS.1.sm_30.ptx:27 skipping new declaration
GPGPU-Sim PTX: Warning %r8 was declared previous at ispass-2009-LPS.1.sm_30.ptx:27 skipping new declaration
GPGPU-Sim PTX: Warning %r9 was declared previous at ispass-2009-LPS.1.sm_30.ptx:27 skipping new declaration
GPGPU-Sim PTX: Warning %r10 was declared previous at ispass-2009-LPS.1.sm_30.ptx:27 skipping new declaration
GPGPU-Sim PTX: Warning %r11 was declared previous at ispass-2009-LPS.1.sm_30.ptx:27 skipping new declaration
GPGPU-Sim PTX: Warning %r12 was declared previous at ispass-2009-LPS.1.sm_30.ptx:27 skipping new declaration
GPGPU-Sim PTX: Warning %r13 was declared previous at ispass-2009-LPS.1.sm_30.ptx:27 skipping new declaration
GPGPU-Sim PTX: Warning %r14 was declared previous at ispass-2009-LPS.1.sm_30.ptx:27 skipping new declaration
GPGPU-Sim PTX: Warning %r15 was declared previous at ispass-2009-LPS.1.sm_30.ptx:27 skipping new declaration
GPGPU-Sim PTX: Warning %r16 was declared previous at ispass-2009-LPS.1.sm_30.ptx:27 skipping new declaration
GPGPU-Sim PTX: Warning %r17 was declared previous at ispass-2009-LPS.1.sm_30.ptx:27 skipping new declaration
GPGPU-Sim PTX: Warning %r18 was declared previous at ispass-2009-LPS.1.sm_30.ptx:27 skipping new declaration
GPGPU-Sim PTX: Warning %r19 was declared previous at ispass-2009-LPS.1.sm_30.ptx:27 skipping new declaration
GPGPU-Sim PTX: Warning %r20 was declared previous at ispass-2009-LPS.1.sm_30.ptx:27 skipping new declaration
GPGPU-Sim PTX: Warning %r21 was declared previous at ispass-2009-LPS.1.sm_30.ptx:27 skipping new declaration
GPGPU-Sim PTX: Warning %r22 was declared previous at ispass-2009-LPS.1.sm_30.ptx:27 skipping new declaration
GPGPU-Sim PTX: Warning %r23 was declared previous at ispass-2009-LPS.1.sm_30.ptx:27 skipping new declaration
GPGPU-Sim PTX: Warning %r24 was declared previous at ispass-2009-LPS.1.sm_30.ptx:27 skipping new declaration
GPGPU-Sim PTX: Warning %r25 was declared previous at ispass-2009-LPS.1.sm_30.ptx:27 skipping new declaration
GPGPU-Sim PTX: Warning %r26 was declared previous at ispass-2009-LPS.1.sm_30.ptx:27 skipping new declaration
GPGPU-Sim PTX: Warning %r27 was declared previous at ispass-2009-LPS.1.sm_30.ptx:27 skipping new declaration
GPGPU-Sim PTX: Warning %r28 was declared previous at ispass-2009-LPS.1.sm_30.ptx:27 skipping new declaration
GPGPU-Sim PTX: Warning %r29 was declared previous at ispass-2009-LPS.1.sm_30.ptx:27 skipping new declaration
GPGPU-Sim PTX: Warning %r30 was declared previous at ispass-2009-LPS.1.sm_30.ptx:27 skipping new declaration
GPGPU-Sim PTX: Warning %r31 was declared previous at ispass-2009-LPS.1.sm_30.ptx:27 skipping new declaration
GPGPU-Sim PTX: Warning %r32 was declared previous at ispass-2009-LPS.1.sm_30.ptx:27 skipping new declaration
GPGPU-Sim PTX: Warning %r33 was declared previous at ispass-2009-LPS.1.sm_30.ptx:27 skipping new declaration
GPGPU-Sim PTX: Warning %r34 was declared previous at ispass-2009-LPS.1.sm_30.ptx:27 skipping new declaration
GPGPU-Sim PTX: Warning %r35 was declared previous at ispass-2009-LPS.1.sm_30.ptx:27 skipping new declaration
GPGPU-Sim PTX: Warning %r36 was declared previous at ispass-2009-LPS.1.sm_30.ptx:27 skipping new declaration
GPGPU-Sim PTX: Warning %r37 was declared previous at ispass-2009-LPS.1.sm_30.ptx:27 skipping new declaration
GPGPU-Sim PTX: Warning %r38 was declared previous at ispass-2009-LPS.1.sm_30.ptx:27 skipping new declaration
GPGPU-Sim PTX: Warning %r39 was declared previous at ispass-2009-LPS.1.sm_30.ptx:27 skipping new declaration
GPGPU-Sim PTX: Warning %r40 was declared previous at ispass-2009-LPS.1.sm_30.ptx:27 skipping new declaration
GPGPU-Sim PTX: Warning %r41 was declared previous at ispass-2009-LPS.1.sm_30.ptx:27 skipping new declaration
GPGPU-Sim PTX: Warning %r42 was declared previous at ispass-2009-LPS.1.sm_30.ptx:27 skipping new declaration
GPGPU-Sim PTX: Warning %r43 was declared previous at ispass-2009-LPS.1.sm_30.ptx:27 skipping new declaration
GPGPU-Sim PTX: Warning %r44 was declared previous at ispass-2009-LPS.1.sm_30.ptx:27 skipping new declaration
GPGPU-Sim PTX: Warning %r45 was declared previous at ispass-2009-LPS.1.sm_30.ptx:27 skipping new declaration
GPGPU-Sim PTX: Warning %r46 was declared previous at ispass-2009-LPS.1.sm_30.ptx:27 skipping new declaration
GPGPU-Sim PTX: Warning %r47 was declared previous at ispass-2009-LPS.1.sm_30.ptx:27 skipping new declaration
GPGPU-Sim PTX: Warning %r48 was declared previous at ispass-2009-LPS.1.sm_30.ptx:27 skipping new declaration
GPGPU-Sim PTX: Warning %r49 was declared previous at ispass-2009-LPS.1.sm_30.ptx:27 skipping new declaration
GPGPU-Sim PTX: Warning %r50 was declared previous at ispass-2009-LPS.1.sm_30.ptx:27 skipping new declaration
GPGPU-Sim PTX: Warning %r51 was declared previous at ispass-2009-LPS.1.sm_30.ptx:27 skipping new declaration
GPGPU-Sim PTX: Warning %r52 was declared previous at ispass-2009-LPS.1.sm_30.ptx:27 skipping new declaration
GPGPU-Sim PTX: Warning %r53 was declared previous at ispass-2009-LPS.1.sm_30.ptx:27 skipping new declaration
GPGPU-Sim PTX: Warning %r54 was declared previous at ispass-2009-LPS.1.sm_30.ptx:27 skipping new declaration
GPGPU-Sim PTX: Warning %r55 was declared previous at ispass-2009-LPS.1.sm_30.ptx:27 skipping new declaration
GPGPU-Sim PTX: Warning %r56 was declared previous at ispass-2009-LPS.1.sm_30.ptx:27 skipping new declaration
GPGPU-Sim PTX: Warning %r57 was declared previous at ispass-2009-LPS.1.sm_30.ptx:27 skipping new declaration
GPGPU-Sim PTX: Warning %r58 was declared previous at ispass-2009-LPS.1.sm_30.ptx:27 skipping new declaration
GPGPU-Sim PTX: Warning %r59 was declared previous at ispass-2009-LPS.1.sm_30.ptx:27 skipping new declaration
GPGPU-Sim PTX: Warning %r60 was declared previous at ispass-2009-LPS.1.sm_30.ptx:27 skipping new declaration
GPGPU-Sim PTX: Warning %r61 was declared previous at ispass-2009-LPS.1.sm_30.ptx:27 skipping new declaration
GPGPU-Sim PTX: Warning %r62 was declared previous at ispass-2009-LPS.1.sm_30.ptx:27 skipping new declaration
GPGPU-Sim PTX: Warning %r63 was declared previous at ispass-2009-LPS.1.sm_30.ptx:27 skipping new declaration
GPGPU-Sim PTX: Warning %r64 was declared previous at ispass-2009-LPS.1.sm_30.ptx:27 skipping new declaration
GPGPU-Sim PTX: Warning %r65 was declared previous at ispass-2009-LPS.1.sm_30.ptx:27 skipping new declaration
GPGPU-Sim PTX: Warning %r66 was declared previous at ispass-2009-LPS.1.sm_30.ptx:27 skipping new declaration
GPGPU-Sim PTX: Warning %r67 was declared previous at ispass-2009-LPS.1.sm_30.ptx:27 skipping new declaration
GPGPU-Sim PTX: Warning %r68 was declared previous at ispass-2009-LPS.1.sm_30.ptx:27 skipping new declaration
GPGPU-Sim PTX: Warning %r69 was declared previous at ispass-2009-LPS.1.sm_30.ptx:27 skipping new declaration
GPGPU-Sim PTX: Warning %r70 was declared previous at ispass-2009-LPS.1.sm_30.ptx:27 skipping new declaration
GPGPU-Sim PTX: Warning %r71 was declared previous at ispass-2009-LPS.1.sm_30.ptx:27 skipping new declaration
GPGPU-Sim PTX: Warning %r72 was declared previous at ispass-2009-LPS.1.sm_30.ptx:27 skipping new declaration
GPGPU-Sim PTX: Warning %r73 was declared previous at ispass-2009-LPS.1.sm_30.ptx:27 skipping new declaration
GPGPU-Sim PTX: Warning %r74 was declared previous at ispass-2009-LPS.1.sm_30.ptx:27 skipping new declaration
GPGPU-Sim PTX: Warning %r75 was declared previous at ispass-2009-LPS.1.sm_30.ptx:27 skipping new declaration
GPGPU-Sim PTX: Warning %r76 was declared previous at ispass-2009-LPS.1.sm_30.ptx:27 skipping new declaration
GPGPU-Sim PTX: Warning %r77 was declared previous at ispass-2009-LPS.1.sm_30.ptx:27 skipping new declaration
GPGPU-Sim PTX: Warning %r78 was declared previous at ispass-2009-LPS.1.sm_30.ptx:27 skipping new declaration
GPGPU-Sim PTX: Warning %r79 was declared previous at ispass-2009-LPS.1.sm_30.ptx:27 skipping new declaration
GPGPU-Sim PTX: Warning %r80 was declared previous at ispass-2009-LPS.1.sm_30.ptx:27 skipping new declaration
GPGPU-Sim PTX: Warning %r81 was declared previous at ispass-2009-LPS.1.sm_30.ptx:27 skipping new declaration
GPGPU-Sim PTX: Warning %r82 was declared previous at ispass-2009-LPS.1.sm_30.ptx:27 skipping new declaration
GPGPU-Sim PTX: Warning %r83 was declared previous at ispass-2009-LPS.1.sm_30.ptx:27 skipping new declaration
GPGPU-Sim PTX: Warning %r84 was declared previous at ispass-2009-LPS.1.sm_30.ptx:27 skipping new declaration
GPGPU-Sim PTX: Warning %r85 was declared previous at ispass-2009-LPS.1.sm_30.ptx:27 skipping new declaration
GPGPU-Sim PTX: Warning %r86 was declared previous at ispass-2009-LPS.1.sm_30.ptx:27 skipping new declaration
GPGPU-Sim PTX: Warning %r87 was declared previous at ispass-2009-LPS.1.sm_30.ptx:27 skipping new declaration
GPGPU-Sim PTX: Warning %r88 was declared previous at ispass-2009-LPS.1.sm_30.ptx:27 skipping new declaration
GPGPU-Sim PTX: Warning %r89 was declared previous at ispass-2009-LPS.1.sm_30.ptx:27 skipping new declaration
GPGPU-Sim PTX: Warning %r90 was declared previous at ispass-2009-LPS.1.sm_30.ptx:27 skipping new declaration
GPGPU-Sim PTX: Warning %r91 was declared previous at ispass-2009-LPS.1.sm_30.ptx:27 skipping new declaration
GPGPU-Sim PTX: Warning %r92 was declared previous at ispass-2009-LPS.1.sm_30.ptx:27 skipping new declaration
GPGPU-Sim PTX: Warning %r93 was declared previous at ispass-2009-LPS.1.sm_30.ptx:27 skipping new declaration
GPGPU-Sim PTX: Warning %r94 was declared previous at ispass-2009-LPS.1.sm_30.ptx:27 skipping new declaration
GPGPU-Sim PTX: Warning %r95 was declared previous at ispass-2009-LPS.1.sm_30.ptx:27 skipping new declaration
GPGPU-Sim PTX: Warning %r96 was declared previous at ispass-2009-LPS.1.sm_30.ptx:27 skipping new declaration
GPGPU-Sim PTX: Warning %r97 was declared previous at ispass-2009-LPS.1.sm_30.ptx:27 skipping new declaration
GPGPU-Sim PTX: Warning %r98 was declared previous at ispass-2009-LPS.1.sm_30.ptx:27 skipping new declaration
GPGPU-Sim PTX: Warning %r99 was declared previous at ispass-2009-LPS.1.sm_30.ptx:27 skipping new declaration
GPGPU-Sim PTX: Warning %r100 was declared previous at ispass-2009-LPS.1.sm_30.ptx:27 skipping new declaration
GPGPU-Sim PTX: Warning %r101 was declared previous at ispass-2009-LPS.1.sm_30.ptx:27 skipping new declaration
GPGPU-Sim PTX: Warning %r102 was declared previous at ispass-2009-LPS.1.sm_30.ptx:27 skipping new declaration
GPGPU-Sim PTX: Warning %r103 was declared previous at ispass-2009-LPS.1.sm_30.ptx:27 skipping new declaration
GPGPU-Sim PTX: Warning %r104 was declared previous at ispass-2009-LPS.1.sm_30.ptx:27 skipping new declaration
GPGPU-Sim PTX: Warning %r105 was declared previous at ispass-2009-LPS.1.sm_30.ptx:27 skipping new declaration
GPGPU-Sim PTX: Warning %r106 was declared previous at ispass-2009-LPS.1.sm_30.ptx:27 skipping new declaration
GPGPU-Sim PTX: Warning %r107 was declared previous at ispass-2009-LPS.1.sm_30.ptx:27 skipping new declaration
GPGPU-Sim PTX: Warning %r108 was declared previous at ispass-2009-LPS.1.sm_30.ptx:27 skipping new declaration
GPGPU-Sim PTX: Warning %r109 was declared previous at ispass-2009-LPS.1.sm_30.ptx:27 skipping new declaration
GPGPU-Sim PTX: Warning %r110 was declared previous at ispass-2009-LPS.1.sm_30.ptx:27 skipping new declaration
GPGPU-Sim PTX: Warning %r111 was declared previous at ispass-2009-LPS.1.sm_30.ptx:27 skipping new declaration
GPGPU-Sim PTX: Warning %r112 was declared previous at ispass-2009-LPS.1.sm_30.ptx:27 skipping new declaration
GPGPU-Sim PTX: Warning %r113 was declared previous at ispass-2009-LPS.1.sm_30.ptx:27 skipping new declaration
GPGPU-Sim PTX: Warning %r114 was declared previous at ispass-2009-LPS.1.sm_30.ptx:27 skipping new declaration
GPGPU-Sim PTX: Warning %r115 was declared previous at ispass-2009-LPS.1.sm_30.ptx:27 skipping new declaration
GPGPU-Sim PTX: Warning %r116 was declared previous at ispass-2009-LPS.1.sm_30.ptx:27 skipping new declaration
GPGPU-Sim PTX: Warning %r117 was declared previous at ispass-2009-LPS.1.sm_30.ptx:27 skipping new declaration
GPGPU-Sim PTX: Warning %r118 was declared previous at ispass-2009-LPS.1.sm_30.ptx:27 skipping new declaration
GPGPU-Sim PTX: Warning %r119 was declared previous at ispass-2009-LPS.1.sm_30.ptx:27 skipping new declaration
GPGPU-Sim PTX: Warning %r120 was declared previous at ispass-2009-LPS.1.sm_30.ptx:27 skipping new declaration
GPGPU-Sim PTX: Warning %r121 was declared previous at ispass-2009-LPS.1.sm_30.ptx:27 skipping new declaration
GPGPU-Sim PTX: Warning %r122 was declared previous at ispass-2009-LPS.1.sm_30.ptx:27 skipping new declaration
GPGPU-Sim PTX: Warning %r123 was declared previous at ispass-2009-LPS.1.sm_30.ptx:27 skipping new declaration
GPGPU-Sim PTX: Warning %r124 was declared previous at ispass-2009-LPS.1.sm_30.ptx:27 skipping new declaration
GPGPU-Sim PTX: Warning %r125 was declared previous at ispass-2009-LPS.1.sm_30.ptx:27 skipping new declaration
GPGPU-Sim PTX: Warning %r126 was declared previous at ispass-2009-LPS.1.sm_30.ptx:27 skipping new declaration
GPGPU-Sim PTX: Warning %r127 was declared previous at ispass-2009-LPS.1.sm_30.ptx:27 skipping new declaration
GPGPU-Sim PTX: Warning %r128 was declared previous at ispass-2009-LPS.1.sm_30.ptx:27 skipping new declaration
GPGPU-Sim PTX: Warning %r129 was declared previous at ispass-2009-LPS.1.sm_30.ptx:27 skipping new declaration
GPGPU-Sim PTX: Warning %r130 was declared previous at ispass-2009-LPS.1.sm_30.ptx:27 skipping new declaration
GPGPU-Sim PTX: Warning %r131 was declared previous at ispass-2009-LPS.1.sm_30.ptx:27 skipping new declaration
GPGPU-Sim PTX: Warning %r132 was declared previous at ispass-2009-LPS.1.sm_30.ptx:27 skipping new declaration
GPGPU-Sim PTX: Warning %r133 was declared previous at ispass-2009-LPS.1.sm_30.ptx:27 skipping new declaration
GPGPU-Sim PTX: Warning %r134 was declared previous at ispass-2009-LPS.1.sm_30.ptx:27 skipping new declaration
GPGPU-Sim PTX: Warning %r135 was declared previous at ispass-2009-LPS.1.sm_30.ptx:27 skipping new declaration
GPGPU-Sim PTX: Warning %r136 was declared previous at ispass-2009-LPS.1.sm_30.ptx:27 skipping new declaration
GPGPU-Sim PTX: Warning %r137 was declared previous at ispass-2009-LPS.1.sm_30.ptx:27 skipping new declaration
GPGPU-Sim PTX: Warning %r138 was declared previous at ispass-2009-LPS.1.sm_30.ptx:27 skipping new declaration
GPGPU-Sim PTX: Warning %r139 was declared previous at ispass-2009-LPS.1.sm_30.ptx:27 skipping new declaration
GPGPU-Sim PTX: Warning %r140 was declared previous at ispass-2009-LPS.1.sm_30.ptx:27 skipping new declaration
GPGPU-Sim PTX: Warning %r141 was declared previous at ispass-2009-LPS.1.sm_30.ptx:27 skipping new declaration
GPGPU-Sim PTX: Warning %r142 was declared previous at ispass-2009-LPS.1.sm_30.ptx:27 skipping new declaration
GPGPU-Sim PTX: Warning %r143 was declared previous at ispass-2009-LPS.1.sm_30.ptx:27 skipping new declaration
GPGPU-Sim PTX: Warning %r144 was declared previous at ispass-2009-LPS.1.sm_30.ptx:27 skipping new declaration
GPGPU-Sim PTX: Warning %r145 was declared previous at ispass-2009-LPS.1.sm_30.ptx:27 skipping new declaration
GPGPU-Sim PTX: Warning %r146 was declared previous at ispass-2009-LPS.1.sm_30.ptx:27 skipping new declaration
GPGPU-Sim PTX: Warning %r147 was declared previous at ispass-2009-LPS.1.sm_30.ptx:27 skipping new declaration
GPGPU-Sim PTX: Warning %r148 was declared previous at ispass-2009-LPS.1.sm_30.ptx:27 skipping new declaration
GPGPU-Sim PTX: Warning %r149 was declared previous at ispass-2009-LPS.1.sm_30.ptx:27 skipping new declaration
GPGPU-Sim PTX: Warning %r150 was declared previous at ispass-2009-LPS.1.sm_30.ptx:27 skipping new declaration
GPGPU-Sim PTX: Warning %r151 was declared previous at ispass-2009-LPS.1.sm_30.ptx:27 skipping new declaration
GPGPU-Sim PTX: Warning %r152 was declared previous at ispass-2009-LPS.1.sm_30.ptx:27 skipping new declaration
GPGPU-Sim PTX: Warning %r153 was declared previous at ispass-2009-LPS.1.sm_30.ptx:27 skipping new declaration
GPGPU-Sim PTX: Warning %r154 was declared previous at ispass-2009-LPS.1.sm_30.ptx:27 skipping new declaration
GPGPU-Sim PTX: Warning %r155 was declared previous at ispass-2009-LPS.1.sm_30.ptx:27 skipping new declaration
GPGPU-Sim PTX: Warning %r156 was declared previous at ispass-2009-LPS.1.sm_30.ptx:27 skipping new declaration
GPGPU-Sim PTX: Warning %r157 was declared previous at ispass-2009-LPS.1.sm_30.ptx:27 skipping new declaration
GPGPU-Sim PTX: Warning %r158 was declared previous at ispass-2009-LPS.1.sm_30.ptx:27 skipping new declaration
GPGPU-Sim PTX: Warning %r159 was declared previous at ispass-2009-LPS.1.sm_30.ptx:27 skipping new declaration
GPGPU-Sim PTX: Warning %r160 was declared previous at ispass-2009-LPS.1.sm_30.ptx:27 skipping new declaration
GPGPU-Sim PTX: Warning %r161 was declared previous at ispass-2009-LPS.1.sm_30.ptx:27 skipping new declaration
GPGPU-Sim PTX: Warning %r162 was declared previous at ispass-2009-LPS.1.sm_30.ptx:27 skipping new declaration
GPGPU-Sim PTX: Warning %r163 was declared previous at ispass-2009-LPS.1.sm_30.ptx:27 skipping new declaration
GPGPU-Sim PTX: Warning %r164 was declared previous at ispass-2009-LPS.1.sm_30.ptx:27 skipping new declaration
GPGPU-Sim PTX: Warning %r165 was declared previous at ispass-2009-LPS.1.sm_30.ptx:27 skipping new declaration
GPGPU-Sim PTX: Warning %r166 was declared previous at ispass-2009-LPS.1.sm_30.ptx:27 skipping new declaration
GPGPU-Sim PTX: Warning %r167 was declared previous at ispass-2009-LPS.1.sm_30.ptx:27 skipping new declaration
GPGPU-Sim PTX: Warning %r168 was declared previous at ispass-2009-LPS.1.sm_30.ptx:27 skipping new declaration
GPGPU-Sim PTX: Warning %r169 was declared previous at ispass-2009-LPS.1.sm_30.ptx:27 skipping new declaration
GPGPU-Sim PTX: Warning %r170 was declared previous at ispass-2009-LPS.1.sm_30.ptx:27 skipping new declaration
GPGPU-Sim PTX: Warning %r171 was declared previous at ispass-2009-LPS.1.sm_30.ptx:27 skipping new declaration
GPGPU-Sim PTX: Warning %r172 was declared previous at ispass-2009-LPS.1.sm_30.ptx:27 skipping new declaration
GPGPU-Sim PTX: Warning %r173 was declared previous at ispass-2009-LPS.1.sm_30.ptx:27 skipping new declaration
GPGPU-Sim PTX: Warning %r174 was declared previous at ispass-2009-LPS.1.sm_30.ptx:27 skipping new declaration
GPGPU-Sim PTX: Warning %r175 was declared previous at ispass-2009-LPS.1.sm_30.ptx:27 skipping new declaration
GPGPU-Sim PTX: Warning %r176 was declared previous at ispass-2009-LPS.1.sm_30.ptx:27 skipping new declaration
GPGPU-Sim PTX: Warning %r177 was declared previous at ispass-2009-LPS.1.sm_30.ptx:27 skipping new declaration
GPGPU-Sim PTX: Warning %r178 was declared previous at ispass-2009-LPS.1.sm_30.ptx:27 skipping new declaration
GPGPU-Sim PTX: Warning %r179 was declared previous at ispass-2009-LPS.1.sm_30.ptx:27 skipping new declaration
GPGPU-Sim PTX: Warning %r180 was declared previous at ispass-2009-LPS.1.sm_30.ptx:27 skipping new declaration
GPGPU-Sim PTX: Warning %r181 was declared previous at ispass-2009-LPS.1.sm_30.ptx:27 skipping new declaration
GPGPU-Sim PTX: Warning %r182 was declared previous at ispass-2009-LPS.1.sm_30.ptx:27 skipping new declaration
GPGPU-Sim PTX: Warning %r183 was declared previous at ispass-2009-LPS.1.sm_30.ptx:27 skipping new declaration
GPGPU-Sim PTX: Warning %r184 was declared previous at ispass-2009-LPS.1.sm_30.ptx:27 skipping new declaration
GPGPU-Sim PTX: Warning %r185 was declared previous at ispass-2009-LPS.1.sm_30.ptx:27 skipping new declaration
GPGPU-Sim PTX: Warning %r186 was declared previous at ispass-2009-LPS.1.sm_30.ptx:27 skipping new declaration
GPGPU-Sim PTX: Warning %r187 was declared previous at ispass-2009-LPS.1.sm_30.ptx:27 skipping new declaration
GPGPU-Sim PTX: Warning %r188 was declared previous at ispass-2009-LPS.1.sm_30.ptx:27 skipping new declaration
GPGPU-Sim PTX: Warning %r189 was declared previous at ispass-2009-LPS.1.sm_30.ptx:27 skipping new declaration
GPGPU-Sim PTX: Warning %r190 was declared previous at ispass-2009-LPS.1.sm_30.ptx:27 skipping new declaration
GPGPU-Sim PTX: Warning %r191 was declared previous at ispass-2009-LPS.1.sm_30.ptx:27 skipping new declaration
GPGPU-Sim PTX: Warning %r192 was declared previous at ispass-2009-LPS.1.sm_30.ptx:27 skipping new declaration
GPGPU-Sim PTX: Warning %r193 was declared previous at ispass-2009-LPS.1.sm_30.ptx:27 skipping new declaration
GPGPU-Sim PTX: Warning %r194 was declared previous at ispass-2009-LPS.1.sm_30.ptx:27 skipping new declaration
GPGPU-Sim PTX: Warning %r195 was declared previous at ispass-2009-LPS.1.sm_30.ptx:27 skipping new declaration
GPGPU-Sim PTX: Warning %r196 was declared previous at ispass-2009-LPS.1.sm_30.ptx:27 skipping new declaration
GPGPU-Sim PTX: Warning %r197 was declared previous at ispass-2009-LPS.1.sm_30.ptx:27 skipping new declaration
GPGPU-Sim PTX: Warning %r198 was declared previous at ispass-2009-LPS.1.sm_30.ptx:27 skipping new declaration
GPGPU-Sim PTX: Warning %r199 was declared previous at ispass-2009-LPS.1.sm_30.ptx:27 skipping new declaration
GPGPU-Sim PTX: Warning %r200 was declared previous at ispass-2009-LPS.1.sm_30.ptx:27 skipping new declaration
GPGPU-Sim PTX: Warning %r201 was declared previous at ispass-2009-LPS.1.sm_30.ptx:27 skipping new declaration
GPGPU-Sim PTX: Warning %r202 was declared previous at ispass-2009-LPS.1.sm_30.ptx:27 skipping new declaration
GPGPU-Sim PTX: Warning %r203 was declared previous at ispass-2009-LPS.1.sm_30.ptx:27 skipping new declaration
GPGPU-Sim PTX: Warning %r204 was declared previous at ispass-2009-LPS.1.sm_30.ptx:27 skipping new declaration
GPGPU-Sim PTX: Warning %r205 was declared previous at ispass-2009-LPS.1.sm_30.ptx:27 skipping new declaration
GPGPU-Sim PTX: Warning %r206 was declared previous at ispass-2009-LPS.1.sm_30.ptx:27 skipping new declaration
GPGPU-Sim PTX: Warning %r207 was declared previous at ispass-2009-LPS.1.sm_30.ptx:27 skipping new declaration
GPGPU-Sim PTX: Warning %r208 was declared previous at ispass-2009-LPS.1.sm_30.ptx:27 skipping new declaration
GPGPU-Sim PTX: Warning %r209 was declared previous at ispass-2009-LPS.1.sm_30.ptx:27 skipping new declaration
GPGPU-Sim PTX: Warning %r210 was declared previous at ispass-2009-LPS.1.sm_30.ptx:27 skipping new declaration
GPGPU-Sim PTX: Warning %r211 was declared previous at ispass-2009-LPS.1.sm_30.ptx:27 skipping new declaration
GPGPU-Sim PTX: Warning %r212 was declared previous at ispass-2009-LPS.1.sm_30.ptx:27 skipping new declaration
GPGPU-Sim PTX: Warning %r213 was declared previous at ispass-2009-LPS.1.sm_30.ptx:27 skipping new declaration
GPGPU-Sim PTX: Warning %r214 was declared previous at ispass-2009-LPS.1.sm_30.ptx:27 skipping new declaration
GPGPU-Sim PTX: Warning %r215 was declared previous at ispass-2009-LPS.1.sm_30.ptx:27 skipping new declaration
GPGPU-Sim PTX: Warning %r216 was declared previous at ispass-2009-LPS.1.sm_30.ptx:27 skipping new declaration
GPGPU-Sim PTX: Warning %r217 was declared previous at ispass-2009-LPS.1.sm_30.ptx:27 skipping new declaration
GPGPU-Sim PTX: Warning %r218 was declared previous at ispass-2009-LPS.1.sm_30.ptx:27 skipping new declaration
GPGPU-Sim PTX: Warning %r219 was declared previous at ispass-2009-LPS.1.sm_30.ptx:27 skipping new declaration
GPGPU-Sim PTX: Warning %r220 was declared previous at ispass-2009-LPS.1.sm_30.ptx:27 skipping new declaration
GPGPU-Sim PTX: Warning %r221 was declared previous at ispass-2009-LPS.1.sm_30.ptx:27 skipping new declaration
GPGPU-Sim PTX: Warning %r222 was declared previous at ispass-2009-LPS.1.sm_30.ptx:27 skipping new declaration
GPGPU-Sim PTX: Warning %r223 was declared previous at ispass-2009-LPS.1.sm_30.ptx:27 skipping new declaration
GPGPU-Sim PTX: Warning %r224 was declared previous at ispass-2009-LPS.1.sm_30.ptx:27 skipping new declaration
GPGPU-Sim PTX: Warning %r225 was declared previous at ispass-2009-LPS.1.sm_30.ptx:27 skipping new declaration
GPGPU-Sim PTX: Warning %r226 was declared previous at ispass-2009-LPS.1.sm_30.ptx:27 skipping new declaration
GPGPU-Sim PTX: Warning %r227 was declared previous at ispass-2009-LPS.1.sm_30.ptx:27 skipping new declaration
GPGPU-Sim PTX: Warning %r228 was declared previous at ispass-2009-LPS.1.sm_30.ptx:27 skipping new declaration
GPGPU-Sim PTX: Warning %r229 was declared previous at ispass-2009-LPS.1.sm_30.ptx:27 skipping new declaration
GPGPU-Sim PTX: Warning %r230 was declared previous at ispass-2009-LPS.1.sm_30.ptx:27 skipping new declaration
GPGPU-Sim PTX: Warning %r231 was declared previous at ispass-2009-LPS.1.sm_30.ptx:27 skipping new declaration
GPGPU-Sim PTX: Warning %r232 was declared previous at ispass-2009-LPS.1.sm_30.ptx:27 skipping new declaration
GPGPU-Sim PTX: Warning %r233 was declared previous at ispass-2009-LPS.1.sm_30.ptx:27 skipping new declaration
GPGPU-Sim PTX: Warning %r234 was declared previous at ispass-2009-LPS.1.sm_30.ptx:27 skipping new declaration
GPGPU-Sim PTX: Warning %r235 was declared previous at ispass-2009-LPS.1.sm_30.ptx:27 skipping new declaration
GPGPU-Sim PTX: Warning %r236 was declared previous at ispass-2009-LPS.1.sm_30.ptx:27 skipping new declaration
GPGPU-Sim PTX: Warning %r237 was declared previous at ispass-2009-LPS.1.sm_30.ptx:27 skipping new declaration
GPGPU-Sim PTX: Warning %r238 was declared previous at ispass-2009-LPS.1.sm_30.ptx:27 skipping new declaration
GPGPU-Sim PTX: Warning %r239 was declared previous at ispass-2009-LPS.1.sm_30.ptx:27 skipping new declaration
GPGPU-Sim PTX: Warning %r240 was declared previous at ispass-2009-LPS.1.sm_30.ptx:27 skipping new declaration
GPGPU-Sim PTX: Warning %r241 was declared previous at ispass-2009-LPS.1.sm_30.ptx:27 skipping new declaration
GPGPU-Sim PTX: Warning %r242 was declared previous at ispass-2009-LPS.1.sm_30.ptx:27 skipping new declaration
GPGPU-Sim PTX: Warning %r243 was declared previous at ispass-2009-LPS.1.sm_30.ptx:27 skipping new declaration
GPGPU-Sim PTX: Warning %r244 was declared previous at ispass-2009-LPS.1.sm_30.ptx:27 skipping new declaration
GPGPU-Sim PTX: Warning %r245 was declared previous at ispass-2009-LPS.1.sm_30.ptx:27 skipping new declaration
GPGPU-Sim PTX: Warning %r246 was declared previous at ispass-2009-LPS.1.sm_30.ptx:27 skipping new declaration
GPGPU-Sim PTX: Warning %r247 was declared previous at ispass-2009-LPS.1.sm_30.ptx:27 skipping new declaration
GPGPU-Sim PTX: Warning %r248 was declared previous at ispass-2009-LPS.1.sm_30.ptx:27 skipping new declaration
GPGPU-Sim PTX: Warning %r249 was declared previous at ispass-2009-LPS.1.sm_30.ptx:27 skipping new declaration
GPGPU-Sim PTX: Warning %r250 was declared previous at ispass-2009-LPS.1.sm_30.ptx:27 skipping new declaration
GPGPU-Sim PTX: Warning %r251 was declared previous at ispass-2009-LPS.1.sm_30.ptx:27 skipping new declaration
GPGPU-Sim PTX: Warning %r252 was declared previous at ispass-2009-LPS.1.sm_30.ptx:27 skipping new declaration
GPGPU-Sim PTX: Warning %rd0 was declared previous at ispass-2009-LPS.1.sm_30.ptx:28 skipping new declaration
GPGPU-Sim PTX: Warning %rd1 was declared previous at ispass-2009-LPS.1.sm_30.ptx:28 skipping new declaration
GPGPU-Sim PTX: Warning %rd2 was declared previous at ispass-2009-LPS.1.sm_30.ptx:28 skipping new declaration
GPGPU-Sim PTX: Warning %rd3 was declared previous at ispass-2009-LPS.1.sm_30.ptx:28 skipping new declaration
GPGPU-Sim PTX: Warning %rd4 was declared previous at ispass-2009-LPS.1.sm_30.ptx:28 skipping new declaration
GPGPU-Sim PTX: Warning %rd5 was declared previous at ispass-2009-LPS.1.sm_30.ptx:28 skipping new declaration
GPGPU-Sim PTX: Warning %rd6 was declared previous at ispass-2009-LPS.1.sm_30.ptx:28 skipping new declaration
GPGPU-Sim PTX: Warning %rd7 was declared previous at ispass-2009-LPS.1.sm_30.ptx:28 skipping new declaration
GPGPU-Sim PTX: Warning %rd8 was declared previous at ispass-2009-LPS.1.sm_30.ptx:28 skipping new declaration
GPGPU-Sim PTX: Warning %rd9 was declared previous at ispass-2009-LPS.1.sm_30.ptx:28 skipping new declaration
GPGPU-Sim PTX: Warning %rd10 was declared previous at ispass-2009-LPS.1.sm_30.ptx:28 skipping new declaration
GPGPU-Sim PTX: Warning %rd11 was declared previous at ispass-2009-LPS.1.sm_30.ptx:28 skipping new declaration
GPGPU-Sim PTX: Warning %rd12 was declared previous at ispass-2009-LPS.1.sm_30.ptx:28 skipping new declaration
GPGPU-Sim PTX: Warning %rd13 was declared previous at ispass-2009-LPS.1.sm_30.ptx:28 skipping new declaration
GPGPU-Sim PTX: Warning %rd14 was declared previous at ispass-2009-LPS.1.sm_30.ptx:28 skipping new declaration
GPGPU-Sim PTX: Warning %rd15 was declared previous at ispass-2009-LPS.1.sm_30.ptx:28 skipping new declaration
GPGPU-Sim PTX: Warning %rd16 was declared previous at ispass-2009-LPS.1.sm_30.ptx:28 skipping new declaration
GPGPU-Sim PTX: Warning %rd17 was declared previous at ispass-2009-LPS.1.sm_30.ptx:28 skipping new declaration
GPGPU-Sim PTX: Warning %rd18 was declared previous at ispass-2009-LPS.1.sm_30.ptx:28 skipping new declaration
GPGPU-Sim PTX: Warning %rd19 was declared previous at ispass-2009-LPS.1.sm_30.ptx:28 skipping new declaration
GPGPU-Sim PTX: Warning %rd20 was declared previous at ispass-2009-LPS.1.sm_30.ptx:28 skipping new declaration
GPGPU-Sim PTX: Warning %rd21 was declared previous at ispass-2009-LPS.1.sm_30.ptx:28 skipping new declaration
GPGPU-Sim PTX: Warning %rd22 was declared previous at ispass-2009-LPS.1.sm_30.ptx:28 skipping new declaration
GPGPU-Sim PTX: Warning %rd23 was declared previous at ispass-2009-LPS.1.sm_30.ptx:28 skipping new declaration
GPGPU-Sim PTX: Warning %rd24 was declared previous at ispass-2009-LPS.1.sm_30.ptx:28 skipping new declaration
GPGPU-Sim PTX: Warning %rd25 was declared previous at ispass-2009-LPS.1.sm_30.ptx:28 skipping new declaration
GPGPU-Sim PTX: Warning %rd26 was declared previous at ispass-2009-LPS.1.sm_30.ptx:28 skipping new declaration
GPGPU-Sim PTX: Warning %rd27 was declared previous at ispass-2009-LPS.1.sm_30.ptx:28 skipping new declaration
GPGPU-Sim PTX: Warning %rd28 was declared previous at ispass-2009-LPS.1.sm_30.ptx:28 skipping new declaration
GPGPU-Sim PTX: Warning %rd29 was declared previous at ispass-2009-LPS.1.sm_30.ptx:28 skipping new declaration
GPGPU-Sim PTX: Warning %rd30 was declared previous at ispass-2009-LPS.1.sm_30.ptx:28 skipping new declaration
GPGPU-Sim PTX: Warning %rd31 was declared previous at ispass-2009-LPS.1.sm_30.ptx:28 skipping new declaration
GPGPU-Sim PTX: Warning %rd32 was declared previous at ispass-2009-LPS.1.sm_30.ptx:28 skipping new declaration
GPGPU-Sim PTX: Warning %rd33 was declared previous at ispass-2009-LPS.1.sm_30.ptx:28 skipping new declaration
GPGPU-Sim PTX: Warning %rd34 was declared previous at ispass-2009-LPS.1.sm_30.ptx:28 skipping new declaration
GPGPU-Sim PTX: Warning %rd35 was declared previous at ispass-2009-LPS.1.sm_30.ptx:28 skipping new declaration
[...]
issued_total_col = 2248 
Row_Bus_Util =  0.000875 
CoL_Bus_Util = 0.032773 
Either_Row_CoL_Bus_Util = 0.033647 
Issued_on_Two_Bus_Simul_Util = 0.000000 
issued_two_Eff = 0.000000 
queue_avg = 0.031752 


dram_util_bins: 0 0 0 0 0 0 0 0 0 0
dram_eff_bins: 0 0 0 0 0 0 0 0 0 0
mrqq: max=6 avg=0.031752
Memory Partition 28: 
Cache L2_bank_056:
MSHR contents

Cache L2_bank_057:
MSHR contents

In Dram Latency Queue (total = 0): 
DRAM[28]: 16 bks, busW=16 BL=2 CL=12, tRRD=3 tCCD=1, tRCD=12 tRAS=28 tRP=12 tRC=40
n_cmd=68594 n_nop=66292 n_act=38 n_pre=22 n_ref_event=0 n_req=1662 n_rd=1468 n_rd_L2_A=0 n_write=0 n_wr_bk=776 bw_util=0.03271
n_activity=10707 dram_eff=0.2096
bk0: 64a 68238i bk1: 64a 68188i bk2: 64a 68173i bk3: 68a 68162i bk4: 64a 68155i bk5: 72a 68128i bk6: 116a 68059i bk7: 124a 68058i bk8: 128a 68234i bk9: 128a 68281i bk10: 128a 68475i bk11: 128a 68464i bk12: 96a 68373i bk13: 96a 68321i bk14: 64a 68345i bk15: 64a 68354i 

------------------------------------------------------------------------

Row_Buffer_Locality = 0.977136
Row_Buffer_Locality_read = 0.983651
Row_Buffer_Locality_write = 0.927835
Bank_Level_Parallism = 1.255349
Bank_Level_Parallism_Col = 1.244449
Bank_Level_Parallism_Ready = 1.025847
write_to_read_ratio_blp_rw_average = 0.530357
GrpLevelPara = 1.103022 

BW Util details:
bwutil = 0.032714 
total_CMD = 68594 
util_bw = 2244 
Wasted_Col = 3279 
Wasted_Row = 179 
Idle = 62892 

BW Util Bottlenecks: 
RCDc_limit = 278 
RCDWRc_limit = 119 
WTRc_limit = 349 
RTWc_limit = 1890 
CCDLc_limit = 1713 
rwq = 0 
CCDLc_limit_alone = 1255 
WTRc_limit_alone = 225 
RTWc_limit_alone = 1556 

Commands details: 
total_CMD = 68594 
n_nop = 66292 
Read = 1468 
Write = 0 
L2_Alloc = 0 
L2_WB = 776 
n_act = 38 
n_pre = 22 
n_ref = 0 
n_req = 1662 
total_req = 2244 

Dual Bus Interface Util: 
issued_total_row = 60 
issued_total_col = 2244 
Row_Bus_Util =  0.000875 
CoL_Bus_Util = 0.032714 
Either_Row_CoL_Bus_Util = 0.033560 
Issued_on_Two_Bus_Simul_Util = 0.000029 
issued_two_Eff = 0.000869 
queue_avg = 0.035338 


dram_util_bins: 0 0 0 0 0 0 0 0 0 0
dram_eff_bins: 0 0 0 0 0 0 0 0 0 0
mrqq: max=8 avg=0.0353384
Memory Partition 29: 
Cache L2_bank_058:
MSHR contents

Cache L2_bank_059:
MSHR contents

In Dram Latency Queue (total = 0): 
DRAM[29]: 16 bks, busW=16 BL=2 CL=12, tRRD=3 tCCD=1, tRCD=12 tRAS=28 tRP=12 tRC=40
n_cmd=68594 n_nop=66290 n_act=38 n_pre=22 n_ref_event=0 n_req=1666 n_rd=1472 n_rd_L2_A=0 n_write=0 n_wr_bk=776 bw_util=0.03277
n_activity=10650 dram_eff=0.2111
bk0: 64a 68141i bk1: 64a 68184i bk2: 64a 68233i bk3: 64a 68141i bk4: 68a 68172i bk5: 72a 68097i bk6: 120a 68157i bk7: 124a 68113i bk8: 128a 68216i bk9: 128a 68274i bk10: 128a 68459i bk11: 128a 68420i bk12: 96a 68397i bk13: 96a 68352i bk14: 64a 68330i bk15: 64a 68314i 

------------------------------------------------------------------------

Row_Buffer_Locality = 0.977191
Row_Buffer_Locality_read = 0.983696
Row_Buffer_Locality_write = 0.927835
Bank_Level_Parallism = 1.255912
Bank_Level_Parallism_Col = 1.229552
Bank_Level_Parallism_Ready = 1.026246
write_to_read_ratio_blp_rw_average = 0.543652
GrpLevelPara = 1.096890 

BW Util details:
bwutil = 0.032773 
total_CMD = 68594 
util_bw = 2248 
Wasted_Col = 3339 
Wasted_Row = 122 
Idle = 62885 

BW Util Bottlenecks: 
RCDc_limit = 273 
RCDWRc_limit = 115 
WTRc_limit = 361 
RTWc_limit = 1939 
CCDLc_limit = 1742 
rwq = 0 
CCDLc_limit_alone = 1270 
WTRc_limit_alone = 231 
RTWc_limit_alone = 1597 

Commands details: 
total_CMD = 68594 
n_nop = 66290 
Read = 1472 
Write = 0 
L2_Alloc = 0 
L2_WB = 776 
n_act = 38 
n_pre = 22 
n_ref = 0 
n_req = 1666 
total_req = 2248 

Dual Bus Interface Util: 
issued_total_row = 60 
issued_total_col = 2248 
Row_Bus_Util =  0.000875 
CoL_Bus_Util = 0.032773 
Either_Row_CoL_Bus_Util = 0.033589 
Issued_on_Two_Bus_Simul_Util = 0.000058 
issued_two_Eff = 0.001736 
queue_avg = 0.033881 


dram_util_bins: 0 0 0 0 0 0 0 0 0 0
dram_eff_bins: 0 0 0 0 0 0 0 0 0 0
mrqq: max=6 avg=0.0338805
Memory Partition 30: 
Cache L2_bank_060:
MSHR contents

Cache L2_bank_061:
MSHR contents

In Dram Latency Queue (total = 0): 
DRAM[30]: 16 bks, busW=16 BL=2 CL=12, tRRD=3 tCCD=1, tRCD=12 tRAS=28 tRP=12 tRC=40
n_cmd=68594 n_nop=66278 n_act=40 n_pre=24 n_ref_event=0 n_req=1675 n_rd=1480 n_rd_L2_A=0 n_write=0 n_wr_bk=780 bw_util=0.03295
n_activity=10801 dram_eff=0.2092
bk0: 64a 68230i bk1: 64a 68232i bk2: 64a 68169i bk3: 72a 68150i bk4: 68a 68115i bk5: 72a 68086i bk6: 116a 68145i bk7: 128a 68057i bk8: 128a 68211i bk9: 128a 68286i bk10: 128a 68375i bk11: 128a 68480i bk12: 96a 68334i bk13: 96a 68371i bk14: 64a 68293i bk15: 64a 68364i 

------------------------------------------------------------------------

Row_Buffer_Locality = 0.976119
Row_Buffer_Locality_read = 0.983108
Row_Buffer_Locality_write = 0.923077
Bank_Level_Parallism = 1.239530
Bank_Level_Parallism_Col = 1.212100
Bank_Level_Parallism_Ready = 1.021239
write_to_read_ratio_blp_rw_average = 0.546745
GrpLevelPara = 1.089351 

BW Util details:
bwutil = 0.032947 
total_CMD = 68594 
util_bw = 2260 
Wasted_Col = 3482 
Wasted_Row = 132 
Idle = 62720 

BW Util Bottlenecks: 
RCDc_limit = 285 
RCDWRc_limit = 123 
WTRc_limit = 363 
RTWc_limit = 2038 
CCDLc_limit = 1731 
rwq = 0 
CCDLc_limit_alone = 1283 
WTRc_limit_alone = 220 
RTWc_limit_alone = 1733 

Commands details: 
total_CMD = 68594 
n_nop = 66278 
Read = 1480 
Write = 0 
L2_Alloc = 0 
L2_WB = 780 
n_act = 40 
n_pre = 24 
n_ref = 0 
n_req = 1675 
total_req = 2260 

Dual Bus Interface Util: 
issued_total_row = 64 
issued_total_col = 2260 
Row_Bus_Util =  0.000933 
CoL_Bus_Util = 0.032947 
Either_Row_CoL_Bus_Util = 0.033764 
Issued_on_Two_Bus_Simul_Util = 0.000117 
issued_two_Eff = 0.003454 
queue_avg = 0.034609 


dram_util_bins: 0 0 0 0 0 0 0 0 0 0
dram_eff_bins: 0 0 0 0 0 0 0 0 0 0
mrqq: max=10 avg=0.0346094
Memory Partition 31: 
Cache L2_bank_062:
MSHR contents

Cache L2_bank_063:
MSHR contents

In Dram Latency Queue (total = 0): 
DRAM[31]: 16 bks, busW=16 BL=2 CL=12, tRRD=3 tCCD=1, tRCD=12 tRAS=28 tRP=12 tRC=40
n_cmd=68594 n_nop=66274 n_act=40 n_pre=24 n_ref_event=0 n_req=1671 n_rd=1476 n_rd_L2_A=0 n_write=0 n_wr_bk=780 bw_util=0.03289
n_activity=10828 dram_eff=0.2083
bk0: 64a 68181i bk1: 64a 68150i bk2: 64a 68174i bk3: 68a 68164i bk4: 68a 68170i bk5: 72a 68163i bk6: 120a 68077i bk7: 124a 68094i bk8: 128a 68174i bk9: 128a 68259i bk10: 128a 68428i bk11: 128a 68454i bk12: 96a 68399i bk13: 96a 68367i bk14: 64a 68296i bk15: 64a 68298i 

------------------------------------------------------------------------

Row_Buffer_Locality = 0.976062
Row_Buffer_Locality_read = 0.983062
Row_Buffer_Locality_write = 0.923077
Bank_Level_Parallism = 1.224636
Bank_Level_Parallism_Col = 1.208001
Bank_Level_Parallism_Ready = 1.019504
write_to_read_ratio_blp_rw_average = 0.550658
GrpLevelPara = 1.090232 

BW Util details:
bwutil = 0.032889 
total_CMD = 68594 
util_bw = 2256 
Wasted_Col = 3547 
Wasted_Row = 180 
Idle = 62611 

BW Util Bottlenecks: 
RCDc_limit = 289 
RCDWRc_limit = 134 
WTRc_limit = 375 
RTWc_limit = 2033 
CCDLc_limit = 1765 
rwq = 0 
CCDLc_limit_alone = 1318 
WTRc_limit_alone = 265 
RTWc_limit_alone = 1696 

Commands details: 
total_CMD = 68594 
n_nop = 66274 
Read = 1476 
Write = 0 
L2_Alloc = 0 
L2_WB = 780 
n_act = 40 
n_pre = 24 
n_ref = 0 
n_req = 1671 
total_req = 2256 

Dual Bus Interface Util: 
issued_total_row = 64 
issued_total_col = 2256 
Row_Bus_Util =  0.000933 
CoL_Bus_Util = 0.032889 
Either_Row_CoL_Bus_Util = 0.033822 
Issued_on_Two_Bus_Simul_Util = 0.000000 
issued_two_Eff = 0.000000 
queue_avg = 0.035120 


dram_util_bins: 0 0 0 0 0 0 0 0 0 0
dram_eff_bins: 0 0 0 0 0 0 0 0 0 0
mrqq: max=6 avg=0.0351197

========= L2 cache stats =========
L2_cache_bank[0]: Access = 6207, Miss = 3000, Miss_rate = 0.483, Pending_hits = 107, Reservation_fails = 0
L2_cache_bank[1]: Access = 6237, Miss = 3020, Miss_rate = 0.484, Pending_hits = 124, Reservation_fails = 0
L2_cache_bank[2]: Access = 6278, Miss = 2983, Miss_rate = 0.475, Pending_hits = 128, Reservation_fails = 0
L2_cache_bank[3]: Access = 6209, Miss = 2982, Miss_rate = 0.480, Pending_hits = 124, Reservation_fails = 0
L2_cache_bank[4]: Access = 6433, Miss = 3005, Miss_rate = 0.467, Pending_hits = 131, Reservation_fails = 0
L2_cache_bank[5]: Access = 6403, Miss = 2980, Miss_rate = 0.465, Pending_hits = 103, Reservation_fails = 0
L2_cache_bank[6]: Access = 6386, Miss = 3017, Miss_rate = 0.472, Pending_hits = 133, Reservation_fails = 0
L2_cache_bank[7]: Access = 6382, Miss = 3003, Miss_rate = 0.471, Pending_hits = 126, Reservation_fails = 0
L2_cache_bank[8]: Access = 6413, Miss = 3000, Miss_rate = 0.468, Pending_hits = 114, Reservation_fails = 0
L2_cache_bank[9]: Access = 6398, Miss = 2995, Miss_rate = 0.468, Pending_hits = 97, Reservation_fails = 0
L2_cache_bank[10]: Access = 6452, Miss = 3008, Miss_rate = 0.466, Pending_hits = 107, Reservation_fails = 0
L2_cache_bank[11]: Access = 6447, Miss = 3017, Miss_rate = 0.468, Pending_hits = 108, Reservation_fails = 0
L2_cache_bank[12]: Access = 6219, Miss = 3015, Miss_rate = 0.485, Pending_hits = 110, Reservation_fails = 0
L2_cache_bank[13]: Access = 6293, Miss = 2982, Miss_rate = 0.474, Pending_hits = 90, Reservation_fails = 0
L2_cache_bank[14]: Access = 6294, Miss = 3016, Miss_rate = 0.479, Pending_hits = 94, Reservation_fails = 0
L2_cache_bank[15]: Access = 6296, Miss = 2969, Miss_rate = 0.472, Pending_hits = 89, Reservation_fails = 0
L2_cache_bank[16]: Access = 6459, Miss = 2983, Miss_rate = 0.462, Pending_hits = 104, Reservation_fails = 0
L2_cache_bank[17]: Access = 6456, Miss = 3000, Miss_rate = 0.465, Pending_hits = 117, Reservation_fails = 0
L2_cache_bank[18]: Access = 6454, Miss = 3021, Miss_rate = 0.468, Pending_hits = 129, Reservation_fails = 0
L2_cache_bank[19]: Access = 6397, Miss = 3023, Miss_rate = 0.473, Pending_hits = 116, Reservation_fails = 0
L2_cache_bank[20]: Access = 6179, Miss = 3034, Miss_rate = 0.491, Pending_hits = 128, Reservation_fails = 0
L2_cache_bank[21]: Access = 6158, Miss = 2987, Miss_rate = 0.485, Pending_hits = 128, Reservation_fails = 0
L2_cache_bank[22]: Access = 6227, Miss = 2986, Miss_rate = 0.480, Pending_hits = 115, Reservation_fails = 0
L2_cache_bank[23]: Access = 6187, Miss = 2971, Miss_rate = 0.480, Pending_hits = 129, Reservation_fails = 0
L2_cache_bank[24]: Access = 6154, Miss = 3004, Miss_rate = 0.488, Pending_hits = 121, Reservation_fails = 0
L2_cache_bank[25]: Access = 6099, Miss = 2996, Miss_rate = 0.491, Pending_hits = 154, Reservation_fails = 0
L2_cache_bank[26]: Access = 6151, Miss = 2990, Miss_rate = 0.486, Pending_hits = 121, Reservation_fails = 0
L2_cache_bank[27]: Access = 6145, Miss = 3007, Miss_rate = 0.489, Pending_hits = 112, Reservation_fails = 0
L2_cache_bank[28]: Access = 6332, Miss = 3011, Miss_rate = 0.476, Pending_hits = 110, Reservation_fails = 0
L2_cache_bank[29]: Access = 6314, Miss = 2998, Miss_rate = 0.475, Pending_hits = 87, Reservation_fails = 0
L2_cache_bank[30]: Access = 6344, Miss = 3032, Miss_rate = 0.478, Pending_hits = 140, Reservation_fails = 0
L2_cache_bank[31]: Access = 6341, Miss = 2996, Miss_rate = 0.472, Pending_hits = 104, Reservation_fails = 0
L2_cache_bank[32]: Access = 6307, Miss = 3029, Miss_rate = 0.480, Pending_hits = 136, Reservation_fails = 0
L2_cache_bank[33]: Access = 6273, Miss = 3008, Miss_rate = 0.480, Pending_hits = 115, Reservation_fails = 0
L2_cache_bank[34]: Access = 6302, Miss = 3001, Miss_rate = 0.476, Pending_hits = 101, Reservation_fails = 0
L2_cache_bank[35]: Access = 6347, Miss = 2996, Miss_rate = 0.472, Pending_hits = 114, Reservation_fails = 0
L2_cache_bank[36]: Access = 6329, Miss = 3012, Miss_rate = 0.476, Pending_hits = 139, Reservation_fails = 0
L2_cache_bank[37]: Access = 6271, Miss = 2969, Miss_rate = 0.473, Pending_hits = 125, Reservation_fails = 0
L2_cache_bank[38]: Access = 6270, Miss = 3047, Miss_rate = 0.486, Pending_hits = 130, Reservation_fails = 0
L2_cache_bank[39]: Access = 6204, Miss = 2981, Miss_rate = 0.480, Pending_hits = 119, Reservation_fails = 0
L2_cache_bank[40]: Access = 6336, Miss = 2991, Miss_rate = 0.472, Pending_hits = 140, Reservation_fails = 0
L2_cache_bank[41]: Access = 6344, Miss = 2996, Miss_rate = 0.472, Pending_hits = 151, Reservation_fails = 0
L2_cache_bank[42]: Access = 6265, Miss = 3001, Miss_rate = 0.479, Pending_hits = 113, Reservation_fails = 0
L2_cache_bank[43]: Access = 6284, Miss = 3005, Miss_rate = 0.478, Pending_hits = 141, Reservation_fails = 0
L2_cache_bank[44]: Access = 6348, Miss = 3037, Miss_rate = 0.478, Pending_hits = 150, Reservation_fails = 0
L2_cache_bank[45]: Access = 6366, Miss = 2991, Miss_rate = 0.470, Pending_hits = 126, Reservation_fails = 0
L2_cache_bank[46]: Access = 6304, Miss = 3025, Miss_rate = 0.480, Pending_hits = 103, Reservation_fails = 0
L2_cache_bank[47]: Access = 6363, Miss = 2986, Miss_rate = 0.469, Pending_hits = 122, Reservation_fails = 0
L2_cache_bank[48]: Access = 6284, Miss = 2995, Miss_rate = 0.477, Pending_hits = 129, Reservation_fails = 0
L2_cache_bank[49]: Access = 6244, Miss = 2994, Miss_rate = 0.480, Pending_hits = 112, Reservation_fails = 0
L2_cache_bank[50]: Access = 6213, Miss = 3001, Miss_rate = 0.483, Pending_hits = 102, Reservation_fails = 0
L2_cache_bank[51]: Access = 6174, Miss = 3013, Miss_rate = 0.488, Pending_hits = 127, Reservation_fails = 0
L2_cache_bank[52]: Access = 6409, Miss = 3029, Miss_rate = 0.473, Pending_hits = 118, Reservation_fails = 0
L2_cache_bank[53]: Access = 6482, Miss = 3001, Miss_rate = 0.463, Pending_hits = 110, Reservation_fails = 0
L2_cache_bank[54]: Access = 6480, Miss = 3026, Miss_rate = 0.467, Pending_hits = 103, Reservation_fails = 0
L2_cache_bank[55]: Access = 6529, Miss = 2978, Miss_rate = 0.456, Pending_hits = 87, Reservation_fails = 0
L2_cache_bank[56]: Access = 6409, Miss = 3023, Miss_rate = 0.472, Pending_hits = 120, Reservation_fails = 0
L2_cache_bank[57]: Access = 6468, Miss = 3009, Miss_rate = 0.465, Pending_hits = 138, Reservation_fails = 0
L2_cache_bank[58]: Access = 6428, Miss = 3018, Miss_rate = 0.470, Pending_hits = 117, Reservation_fails = 0
L2_cache_bank[59]: Access = 6430, Miss = 2992, Miss_rate = 0.465, Pending_hits = 99, Reservation_fails = 0
L2_cache_bank[60]: Access = 6266, Miss = 3028, Miss_rate = 0.483, Pending_hits = 120, Reservation_fails = 0
L2_cache_bank[61]: Access = 6205, Miss = 2973, Miss_rate = 0.479, Pending_hits = 97, Reservation_fails = 0
L2_cache_bank[62]: Access = 6190, Miss = 3030, Miss_rate = 0.489, Pending_hits = 137, Reservation_fails = 0
L2_cache_bank[63]: Access = 6132, Miss = 2984, Miss_rate = 0.487, Pending_hits = 125, Reservation_fails = 0
L2_total_cache_accesses = 404000
L2_total_cache_misses = 192200
L2_total_cache_miss_rate = 0.4757
L2_total_cache_pending_hits = 7566
L2_total_cache_reservation_fails = 0
L2_total_cache_breakdown:
	L2_cache_stats_breakdown[GLOBAL_ACC_R][HIT] = 204234
	L2_cache_stats_breakdown[GLOBAL_ACC_R][HIT_RESERVED] = 7566
	L2_cache_stats_breakdown[GLOBAL_ACC_R][MISS] = 11800
	L2_cache_stats_breakdown[GLOBAL_ACC_R][RESERVATION_FAIL] = 0
	L2_cache_stats_breakdown[GLOBAL_ACC_R][SECTOR_MISS] = 35400
	L2_cache_stats_breakdown[LOCAL_ACC_R][HIT] = 0
	L2_cache_stats_breakdown[LOCAL_ACC_R][HIT_RESERVED] = 0
	L2_cache_stats_breakdown[LOCAL_ACC_R][MISS] = 0
	L2_cache_stats_breakdown[LOCAL_ACC_R][RESERVATION_FAIL] = 0
	L2_cache_stats_breakdown[LOCAL_ACC_R][SECTOR_MISS] = 0
	L2_cache_stats_breakdown[CONST_ACC_R][HIT] = 0
	L2_cache_stats_breakdown[CONST_ACC_R][HIT_RESERVED] = 0
	L2_cache_stats_breakdown[CONST_ACC_R][MISS] = 0
	L2_cache_stats_breakdown[CONST_ACC_R][RESERVATION_FAIL] = 0
	L2_cache_stats_breakdown[CONST_ACC_R][SECTOR_MISS] = 0
	L2_cache_stats_breakdown[TEXTURE_ACC_R][HIT] = 0
	L2_cache_stats_breakdown[TEXTURE_ACC_R][HIT_RESERVED] = 0
	L2_cache_stats_breakdown[TEXTURE_ACC_R][MISS] = 0
	L2_cache_stats_breakdown[TEXTURE_ACC_R][RESERVATION_FAIL] = 0
	L2_cache_stats_breakdown[TEXTURE_ACC_R][SECTOR_MISS] = 0
	L2_cache_stats_breakdown[GLOBAL_ACC_W][HIT] = 0
	L2_cache_stats_breakdown[GLOBAL_ACC_W][HIT_RESERVED] = 0
	L2_cache_stats_breakdown[GLOBAL_ACC_W][MISS] = 31250
	L2_cache_stats_breakdown[GLOBAL_ACC_W][RESERVATION_FAIL] = 0
	L2_cache_stats_breakdown[GLOBAL_ACC_W][SECTOR_MISS] = 113750
	L2_cache_stats_breakdown[LOCAL_ACC_W][HIT] = 0
	L2_cache_stats_breakdown[LOCAL_ACC_W][HIT_RESERVED] = 0
	L2_cache_stats_breakdown[LOCAL_ACC_W][MISS] = 0
	L2_cache_stats_breakdown[LOCAL_ACC_W][RESERVATION_FAIL] = 0
	L2_cache_stats_breakdown[LOCAL_ACC_W][SECTOR_MISS] = 0
	L2_cache_stats_breakdown[L1_WRBK_ACC][HIT] = 0
	L2_cache_stats_breakdown[L1_WRBK_ACC][HIT_RESERVED] = 0
	L2_cache_stats_breakdown[L1_WRBK_ACC][MISS] = 0
	L2_cache_stats_breakdown[L1_WRBK_ACC][RESERVATION_FAIL] = 0
	L2_cache_stats_breakdown[L1_WRBK_ACC][SECTOR_MISS] = 0
	L2_cache_stats_breakdown[L2_WRBK_ACC][HIT] = 0
	L2_cache_stats_breakdown[L2_WRBK_ACC][HIT_RESERVED] = 0
	L2_cache_stats_breakdown[L2_WRBK_ACC][MISS] = 0
	L2_cache_stats_breakdown[L2_WRBK_ACC][RESERVATION_FAIL] = 0
	L2_cache_stats_breakdown[L2_WRBK_ACC][SECTOR_MISS] = 0
	L2_cache_stats_breakdown[INST_ACC_R][HIT] = 0
	L2_cache_stats_breakdown[INST_ACC_R][HIT_RESERVED] = 0
	L2_cache_stats_breakdown[INST_ACC_R][MISS] = 0
	L2_cache_stats_breakdown[INST_ACC_R][RESERVATION_FAIL] = 0
	L2_cache_stats_breakdown[INST_ACC_R][SECTOR_MISS] = 0
	L2_cache_stats_breakdown[L1_WR_ALLOC_R][HIT] = 0
	L2_cache_stats_breakdown[L1_WR_ALLOC_R][HIT_RESERVED] = 0
	L2_cache_stats_breakdown[L1_WR_ALLOC_R][MISS] = 0
	L2_cache_stats_breakdown[L1_WR_ALLOC_R][RESERVATION_FAIL] = 0
	L2_cache_stats_breakdown[L1_WR_ALLOC_R][SECTOR_MISS] = 0
	L2_cache_stats_breakdown[L2_WR_ALLOC_R][HIT] = 0
	L2_cache_stats_breakdown[L2_WR_ALLOC_R][HIT_RESERVED] = 0
	L2_cache_stats_breakdown[L2_WR_ALLOC_R][MISS] = 0
	L2_cache_stats_breakdown[L2_WR_ALLOC_R][RESERVATION_FAIL] = 0
	L2_cache_stats_breakdown[L2_WR_ALLOC_R][SECTOR_MISS] = 0
	L2_cache_stats_breakdown[GLOBAL_ACC_R][TOTAL_ACCESS] = 259000
	L2_cache_stats_breakdown[GLOBAL_ACC_W][TOTAL_ACCESS] = 145000
L2_total_cache_reservation_fail_breakdown:
L2_cache_data_port_util = 0.036
L2_cache_fill_port_util = 0.008

icnt_total_pkts_mem_to_simt=404000
icnt_total_pkts_simt_to_mem=404000
LD_mem_lat_dist  0 0 0 0 0 0 0 0 0 0 0 0 0 0 0 0 0 0 0 0 0 0 0 0 0 0 0
ST_mem_lat_dist  0 0 0 0 0 0 0 0 0 0 0 0 0 0 0 0 0 0 0 0 0 0 0 0 0 0 0
----------------------------Interconnect-DETAILS--------------------------------
Req_Network_injected_packets_num = 404000
Req_Network_cycles = 91352
Req_Network_injected_packets_per_cycle =       4.4225 
Req_Network_conflicts_per_cycle =       0.3786
Req_Network_conflicts_per_cycle_util =       0.4314
Req_Bank_Level_Parallism =       5.0401
Req_Network_in_buffer_full_per_cycle =       0.0000
Req_Network_in_buffer_avg_util =       0.0258
Req_Network_out_buffer_full_per_cycle =       0.0000
Req_Network_out_buffer_avg_util =       0.0691

Reply_Network_injected_packets_num = 404000
Reply_Network_cycles = 91352
Reply_Network_injected_packets_per_cycle =        4.4225
Reply_Network_conflicts_per_cycle =        0.6375
Reply_Network_conflicts_per_cycle_util =       0.7287
Reply_Bank_Level_Parallism =       5.0554
Reply_Network_in_buffer_full_per_cycle =       0.0000
Reply_Network_in_buffer_avg_util =       0.0187
Reply_Network_out_buffer_full_per_cycle =       0.0000
Reply_Network_out_buffer_avg_util =       0.0553
----------------------------END-of-Interconnect-DETAILS-------------------------
GPGPU-Sim: synchronize waiting for inactive GPU simulation
GPGPU-Sim API: Stream Manager State


gpgpu_simulation_time = 0 days, 0 hrs, 8 min, 21 sec (501 sec)
gpgpu_simulation_rate = 116353 (inst/sec)
gpgpu_simulation_rate = 182 (cycle/sec)
gpgpu_silicon_slowdown = 6219780x
GPGPU-Sim: detected inactive GPU simulation thread

1x GPU_laplace3d: 500266.562500 (ms) 

Copy u2 to host: 276.596985 (ms) 

1x Gold_laplace3d: 6.300000 (ms) 
 

 rms error = 0.000000 
CUDA_SAFE_CALL( cudaFree(d_u1) );
CUDA_SAFE_CALL( cudaFree(d_u2) );
free(h_u1);
free(h_u2);
free(h_u3);
GPGPU-Sim: *** exit detected ***
